
---------- Begin Simulation Statistics ----------
simSeconds                                   0.000012                       # Number of seconds simulated (Second)
simTicks                                     12284000                       # Number of ticks simulated (Tick)
finalTick                                   159750000                       # Number of ticks from beginning of simulation (restored from checkpoints and never reset) (Tick)
simFreq                                  1000000000000                       # The number of ticks per simulated second ((Tick/Second))
hostSeconds                                      0.05                       # Real time elapsed on the host (Second)
hostTickRate                                243059815                       # The number of ticks simulated per host second (ticks/s) ((Tick/Second))
hostMemory                                    8580444                       # Number of bytes of host memory used (Byte)
simInsts                                         1503                       # Number of instructions simulated (Count)
simOps                                           2454                       # Number of ops (including micro ops) simulated (Count)
hostInstRate                                    29677                       # Simulator instruction rate (inst/s) ((Count/Second))
hostOpRate                                      48451                       # Simulator op (including micro ops) rate (op/s) ((Count/Second))
system.clk_domain.clock                          1000                       # Clock period in ticks (Tick)
system.cpu.numCycles                            24568                       # Number of cpu cycles simulated (Cycle)
system.cpu.cpi                              16.345975                       # CPI: cycles per instruction (core level) ((Cycle/Count))
system.cpu.ipc                               0.061177                       # IPC: instructions per cycle (core level) ((Count/Cycle))
system.cpu.numWorkItemsStarted                      0                       # Number of work items this cpu started (Count)
system.cpu.numWorkItemsCompleted                    0                       # Number of work items this cpu completed (Count)
system.cpu.instsAdded                            2579                       # Number of instructions added to the IQ (excludes non-spec) (Count)
system.cpu.nonSpecInstsAdded                        1                       # Number of non-speculative instructions added to the IQ (Count)
system.cpu.instsIssued                           2559                       # Number of instructions issued (Count)
system.cpu.squashedInstsIssued                      2                       # Number of squashed instructions issued (Count)
system.cpu.squashedInstsExamined                  134                       # Number of squashed instructions iterated over during squash; mainly for profiling (Count)
system.cpu.squashedOperandsExamined               154                       # Number of squashed operands that are examined and possibly removed from graph (Count)
system.cpu.numIssuedDist::samples               24568                       # Number of insts issued each cycle (Count)
system.cpu.numIssuedDist::mean               0.104160                       # Number of insts issued each cycle (Count)
system.cpu.numIssuedDist::stdev              0.727002                       # Number of insts issued each cycle (Count)
system.cpu.numIssuedDist::underflows                0      0.00%      0.00% # Number of insts issued each cycle (Count)
system.cpu.numIssuedDist::0                     23923     97.37%     97.37% # Number of insts issued each cycle (Count)
system.cpu.numIssuedDist::1                        90      0.37%     97.74% # Number of insts issued each cycle (Count)
system.cpu.numIssuedDist::2                       127      0.52%     98.26% # Number of insts issued each cycle (Count)
system.cpu.numIssuedDist::3                       117      0.48%     98.73% # Number of insts issued each cycle (Count)
system.cpu.numIssuedDist::4                        41      0.17%     98.90% # Number of insts issued each cycle (Count)
system.cpu.numIssuedDist::5                        63      0.26%     99.16% # Number of insts issued each cycle (Count)
system.cpu.numIssuedDist::6                        93      0.38%     99.54% # Number of insts issued each cycle (Count)
system.cpu.numIssuedDist::7                        85      0.35%     99.88% # Number of insts issued each cycle (Count)
system.cpu.numIssuedDist::8                        29      0.12%    100.00% # Number of insts issued each cycle (Count)
system.cpu.numIssuedDist::overflows                 0      0.00%    100.00% # Number of insts issued each cycle (Count)
system.cpu.numIssuedDist::min_value                 0                       # Number of insts issued each cycle (Count)
system.cpu.numIssuedDist::max_value                 8                       # Number of insts issued each cycle (Count)
system.cpu.numIssuedDist::total                 24568                       # Number of insts issued each cycle (Count)
system.cpu.statFuBusy::No_OpClass                   0      0.00%      0.00% # attempts to use FU when none available (Count)
system.cpu.statFuBusy::IntAlu                      33     91.67%     91.67% # attempts to use FU when none available (Count)
system.cpu.statFuBusy::IntMult                      0      0.00%     91.67% # attempts to use FU when none available (Count)
system.cpu.statFuBusy::IntDiv                       0      0.00%     91.67% # attempts to use FU when none available (Count)
system.cpu.statFuBusy::FloatAdd                     0      0.00%     91.67% # attempts to use FU when none available (Count)
system.cpu.statFuBusy::FloatCmp                     0      0.00%     91.67% # attempts to use FU when none available (Count)
system.cpu.statFuBusy::FloatCvt                     0      0.00%     91.67% # attempts to use FU when none available (Count)
system.cpu.statFuBusy::FloatMult                    0      0.00%     91.67% # attempts to use FU when none available (Count)
system.cpu.statFuBusy::FloatMultAcc                 0      0.00%     91.67% # attempts to use FU when none available (Count)
system.cpu.statFuBusy::FloatDiv                     0      0.00%     91.67% # attempts to use FU when none available (Count)
system.cpu.statFuBusy::FloatMisc                    0      0.00%     91.67% # attempts to use FU when none available (Count)
system.cpu.statFuBusy::FloatSqrt                    0      0.00%     91.67% # attempts to use FU when none available (Count)
system.cpu.statFuBusy::SimdAdd                      0      0.00%     91.67% # attempts to use FU when none available (Count)
system.cpu.statFuBusy::SimdAddAcc                   0      0.00%     91.67% # attempts to use FU when none available (Count)
system.cpu.statFuBusy::SimdAlu                      0      0.00%     91.67% # attempts to use FU when none available (Count)
system.cpu.statFuBusy::SimdCmp                      0      0.00%     91.67% # attempts to use FU when none available (Count)
system.cpu.statFuBusy::SimdCvt                      0      0.00%     91.67% # attempts to use FU when none available (Count)
system.cpu.statFuBusy::SimdMisc                     0      0.00%     91.67% # attempts to use FU when none available (Count)
system.cpu.statFuBusy::SimdMult                     0      0.00%     91.67% # attempts to use FU when none available (Count)
system.cpu.statFuBusy::SimdMultAcc                  0      0.00%     91.67% # attempts to use FU when none available (Count)
system.cpu.statFuBusy::SimdMatMultAcc               0      0.00%     91.67% # attempts to use FU when none available (Count)
system.cpu.statFuBusy::SimdShift                    0      0.00%     91.67% # attempts to use FU when none available (Count)
system.cpu.statFuBusy::SimdShiftAcc                 0      0.00%     91.67% # attempts to use FU when none available (Count)
system.cpu.statFuBusy::SimdDiv                      0      0.00%     91.67% # attempts to use FU when none available (Count)
system.cpu.statFuBusy::SimdSqrt                     0      0.00%     91.67% # attempts to use FU when none available (Count)
system.cpu.statFuBusy::SimdFloatAdd                 0      0.00%     91.67% # attempts to use FU when none available (Count)
system.cpu.statFuBusy::SimdFloatAlu                 0      0.00%     91.67% # attempts to use FU when none available (Count)
system.cpu.statFuBusy::SimdFloatCmp                 0      0.00%     91.67% # attempts to use FU when none available (Count)
system.cpu.statFuBusy::SimdFloatCvt                 0      0.00%     91.67% # attempts to use FU when none available (Count)
system.cpu.statFuBusy::SimdFloatDiv                 0      0.00%     91.67% # attempts to use FU when none available (Count)
system.cpu.statFuBusy::SimdFloatMisc                0      0.00%     91.67% # attempts to use FU when none available (Count)
system.cpu.statFuBusy::SimdFloatMult                0      0.00%     91.67% # attempts to use FU when none available (Count)
system.cpu.statFuBusy::SimdFloatMultAcc             0      0.00%     91.67% # attempts to use FU when none available (Count)
system.cpu.statFuBusy::SimdFloatMatMultAcc            0      0.00%     91.67% # attempts to use FU when none available (Count)
system.cpu.statFuBusy::SimdFloatSqrt                0      0.00%     91.67% # attempts to use FU when none available (Count)
system.cpu.statFuBusy::SimdReduceAdd                0      0.00%     91.67% # attempts to use FU when none available (Count)
system.cpu.statFuBusy::SimdReduceAlu                0      0.00%     91.67% # attempts to use FU when none available (Count)
system.cpu.statFuBusy::SimdReduceCmp                0      0.00%     91.67% # attempts to use FU when none available (Count)
system.cpu.statFuBusy::SimdFloatReduceAdd            0      0.00%     91.67% # attempts to use FU when none available (Count)
system.cpu.statFuBusy::SimdFloatReduceCmp            0      0.00%     91.67% # attempts to use FU when none available (Count)
system.cpu.statFuBusy::SimdAes                      0      0.00%     91.67% # attempts to use FU when none available (Count)
system.cpu.statFuBusy::SimdAesMix                   0      0.00%     91.67% # attempts to use FU when none available (Count)
system.cpu.statFuBusy::SimdSha1Hash                 0      0.00%     91.67% # attempts to use FU when none available (Count)
system.cpu.statFuBusy::SimdSha1Hash2                0      0.00%     91.67% # attempts to use FU when none available (Count)
system.cpu.statFuBusy::SimdSha256Hash               0      0.00%     91.67% # attempts to use FU when none available (Count)
system.cpu.statFuBusy::SimdSha256Hash2              0      0.00%     91.67% # attempts to use FU when none available (Count)
system.cpu.statFuBusy::SimdShaSigma2                0      0.00%     91.67% # attempts to use FU when none available (Count)
system.cpu.statFuBusy::SimdShaSigma3                0      0.00%     91.67% # attempts to use FU when none available (Count)
system.cpu.statFuBusy::SimdSha3                     0      0.00%     91.67% # attempts to use FU when none available (Count)
system.cpu.statFuBusy::SimdSm4e                     0      0.00%     91.67% # attempts to use FU when none available (Count)
system.cpu.statFuBusy::SimdCrc                      0      0.00%     91.67% # attempts to use FU when none available (Count)
system.cpu.statFuBusy::SimdPredAlu                  0      0.00%     91.67% # attempts to use FU when none available (Count)
system.cpu.statFuBusy::SimdDotProd                  0      0.00%     91.67% # attempts to use FU when none available (Count)
system.cpu.statFuBusy::Matrix                       0      0.00%     91.67% # attempts to use FU when none available (Count)
system.cpu.statFuBusy::MatrixMov                    0      0.00%     91.67% # attempts to use FU when none available (Count)
system.cpu.statFuBusy::MatrixOP                     0      0.00%     91.67% # attempts to use FU when none available (Count)
system.cpu.statFuBusy::MemRead                      1      2.78%     94.44% # attempts to use FU when none available (Count)
system.cpu.statFuBusy::MemWrite                     2      5.56%    100.00% # attempts to use FU when none available (Count)
system.cpu.statFuBusy::FloatMemRead                 0      0.00%    100.00% # attempts to use FU when none available (Count)
system.cpu.statFuBusy::FloatMemWrite                0      0.00%    100.00% # attempts to use FU when none available (Count)
system.cpu.statFuBusy::InstPrefetch                 0      0.00%    100.00% # attempts to use FU when none available (Count)
system.cpu.statFuBusy::SimdUnitStrideLoad            0      0.00%    100.00% # attempts to use FU when none available (Count)
system.cpu.statFuBusy::SimdUnitStrideStore            0      0.00%    100.00% # attempts to use FU when none available (Count)
system.cpu.statFuBusy::SimdUnitStrideMaskLoad            0      0.00%    100.00% # attempts to use FU when none available (Count)
system.cpu.statFuBusy::SimdUnitStrideMaskStore            0      0.00%    100.00% # attempts to use FU when none available (Count)
system.cpu.statFuBusy::SimdStridedLoad              0      0.00%    100.00% # attempts to use FU when none available (Count)
system.cpu.statFuBusy::SimdStridedStore             0      0.00%    100.00% # attempts to use FU when none available (Count)
system.cpu.statFuBusy::SimdIndexedLoad              0      0.00%    100.00% # attempts to use FU when none available (Count)
system.cpu.statFuBusy::SimdIndexedStore             0      0.00%    100.00% # attempts to use FU when none available (Count)
system.cpu.statFuBusy::SimdWholeRegisterLoad            0      0.00%    100.00% # attempts to use FU when none available (Count)
system.cpu.statFuBusy::SimdWholeRegisterStore            0      0.00%    100.00% # attempts to use FU when none available (Count)
system.cpu.statFuBusy::SimdUnitStrideFaultOnlyFirstLoad            0      0.00%    100.00% # attempts to use FU when none available (Count)
system.cpu.statFuBusy::SimdUnitStrideSegmentedLoad            0      0.00%    100.00% # attempts to use FU when none available (Count)
system.cpu.statFuBusy::SimdUnitStrideSegmentedStore            0      0.00%    100.00% # attempts to use FU when none available (Count)
system.cpu.statFuBusy::SimdUnitStrideSegmentedFaultOnlyFirstLoad            0      0.00%    100.00% # attempts to use FU when none available (Count)
system.cpu.statFuBusy::SimdStrideSegmentedLoad            0      0.00%    100.00% # attempts to use FU when none available (Count)
system.cpu.statFuBusy::SimdStrideSegmentedStore            0      0.00%    100.00% # attempts to use FU when none available (Count)
system.cpu.statFuBusy::SimdExt                      0      0.00%    100.00% # attempts to use FU when none available (Count)
system.cpu.statFuBusy::SimdFloatExt                 0      0.00%    100.00% # attempts to use FU when none available (Count)
system.cpu.statFuBusy::SimdConfig                   0      0.00%    100.00% # attempts to use FU when none available (Count)
system.cpu.statFuBusy::SimdBf16Add                  0      0.00%    100.00% # attempts to use FU when none available (Count)
system.cpu.statFuBusy::SimdBf16Cmp                  0      0.00%    100.00% # attempts to use FU when none available (Count)
system.cpu.statFuBusy::SimdBf16Cvt                  0      0.00%    100.00% # attempts to use FU when none available (Count)
system.cpu.statFuBusy::SimdBf16DotProd              0      0.00%    100.00% # attempts to use FU when none available (Count)
system.cpu.statFuBusy::SimdBf16MatMultAcc            0      0.00%    100.00% # attempts to use FU when none available (Count)
system.cpu.statFuBusy::SimdBf16Mult                 0      0.00%    100.00% # attempts to use FU when none available (Count)
system.cpu.statFuBusy::SimdBf16MultAcc              0      0.00%    100.00% # attempts to use FU when none available (Count)
system.cpu.statFuBusy::Bf16Cvt                      0      0.00%    100.00% # attempts to use FU when none available (Count)
system.cpu.statFuBusy::System                       0      0.00%    100.00% # attempts to use FU when none available (Count)
system.cpu.issuedInstType_0::No_OpClass             5      0.20%      0.20% # Number of instructions issued per FU type, per thread (Count)
system.cpu.issuedInstType_0::IntAlu              2036     79.56%     79.76% # Number of instructions issued per FU type, per thread (Count)
system.cpu.issuedInstType_0::IntMult                0      0.00%     79.76% # Number of instructions issued per FU type, per thread (Count)
system.cpu.issuedInstType_0::IntDiv                 0      0.00%     79.76% # Number of instructions issued per FU type, per thread (Count)
system.cpu.issuedInstType_0::FloatAdd               0      0.00%     79.76% # Number of instructions issued per FU type, per thread (Count)
system.cpu.issuedInstType_0::FloatCmp               0      0.00%     79.76% # Number of instructions issued per FU type, per thread (Count)
system.cpu.issuedInstType_0::FloatCvt               0      0.00%     79.76% # Number of instructions issued per FU type, per thread (Count)
system.cpu.issuedInstType_0::FloatMult              0      0.00%     79.76% # Number of instructions issued per FU type, per thread (Count)
system.cpu.issuedInstType_0::FloatMultAcc            0      0.00%     79.76% # Number of instructions issued per FU type, per thread (Count)
system.cpu.issuedInstType_0::FloatDiv               0      0.00%     79.76% # Number of instructions issued per FU type, per thread (Count)
system.cpu.issuedInstType_0::FloatMisc              0      0.00%     79.76% # Number of instructions issued per FU type, per thread (Count)
system.cpu.issuedInstType_0::FloatSqrt              0      0.00%     79.76% # Number of instructions issued per FU type, per thread (Count)
system.cpu.issuedInstType_0::SimdAdd                0      0.00%     79.76% # Number of instructions issued per FU type, per thread (Count)
system.cpu.issuedInstType_0::SimdAddAcc             0      0.00%     79.76% # Number of instructions issued per FU type, per thread (Count)
system.cpu.issuedInstType_0::SimdAlu                0      0.00%     79.76% # Number of instructions issued per FU type, per thread (Count)
system.cpu.issuedInstType_0::SimdCmp                0      0.00%     79.76% # Number of instructions issued per FU type, per thread (Count)
system.cpu.issuedInstType_0::SimdCvt                0      0.00%     79.76% # Number of instructions issued per FU type, per thread (Count)
system.cpu.issuedInstType_0::SimdMisc               0      0.00%     79.76% # Number of instructions issued per FU type, per thread (Count)
system.cpu.issuedInstType_0::SimdMult               0      0.00%     79.76% # Number of instructions issued per FU type, per thread (Count)
system.cpu.issuedInstType_0::SimdMultAcc            0      0.00%     79.76% # Number of instructions issued per FU type, per thread (Count)
system.cpu.issuedInstType_0::SimdMatMultAcc            0      0.00%     79.76% # Number of instructions issued per FU type, per thread (Count)
system.cpu.issuedInstType_0::SimdShift              0      0.00%     79.76% # Number of instructions issued per FU type, per thread (Count)
system.cpu.issuedInstType_0::SimdShiftAcc            0      0.00%     79.76% # Number of instructions issued per FU type, per thread (Count)
system.cpu.issuedInstType_0::SimdDiv                0      0.00%     79.76% # Number of instructions issued per FU type, per thread (Count)
system.cpu.issuedInstType_0::SimdSqrt               0      0.00%     79.76% # Number of instructions issued per FU type, per thread (Count)
system.cpu.issuedInstType_0::SimdFloatAdd            0      0.00%     79.76% # Number of instructions issued per FU type, per thread (Count)
system.cpu.issuedInstType_0::SimdFloatAlu            0      0.00%     79.76% # Number of instructions issued per FU type, per thread (Count)
system.cpu.issuedInstType_0::SimdFloatCmp            0      0.00%     79.76% # Number of instructions issued per FU type, per thread (Count)
system.cpu.issuedInstType_0::SimdFloatCvt            0      0.00%     79.76% # Number of instructions issued per FU type, per thread (Count)
system.cpu.issuedInstType_0::SimdFloatDiv            0      0.00%     79.76% # Number of instructions issued per FU type, per thread (Count)
system.cpu.issuedInstType_0::SimdFloatMisc            0      0.00%     79.76% # Number of instructions issued per FU type, per thread (Count)
system.cpu.issuedInstType_0::SimdFloatMult            0      0.00%     79.76% # Number of instructions issued per FU type, per thread (Count)
system.cpu.issuedInstType_0::SimdFloatMultAcc            0      0.00%     79.76% # Number of instructions issued per FU type, per thread (Count)
system.cpu.issuedInstType_0::SimdFloatMatMultAcc            0      0.00%     79.76% # Number of instructions issued per FU type, per thread (Count)
system.cpu.issuedInstType_0::SimdFloatSqrt            0      0.00%     79.76% # Number of instructions issued per FU type, per thread (Count)
system.cpu.issuedInstType_0::SimdReduceAdd            0      0.00%     79.76% # Number of instructions issued per FU type, per thread (Count)
system.cpu.issuedInstType_0::SimdReduceAlu            0      0.00%     79.76% # Number of instructions issued per FU type, per thread (Count)
system.cpu.issuedInstType_0::SimdReduceCmp            0      0.00%     79.76% # Number of instructions issued per FU type, per thread (Count)
system.cpu.issuedInstType_0::SimdFloatReduceAdd            0      0.00%     79.76% # Number of instructions issued per FU type, per thread (Count)
system.cpu.issuedInstType_0::SimdFloatReduceCmp            0      0.00%     79.76% # Number of instructions issued per FU type, per thread (Count)
system.cpu.issuedInstType_0::SimdAes                0      0.00%     79.76% # Number of instructions issued per FU type, per thread (Count)
system.cpu.issuedInstType_0::SimdAesMix             0      0.00%     79.76% # Number of instructions issued per FU type, per thread (Count)
system.cpu.issuedInstType_0::SimdSha1Hash            0      0.00%     79.76% # Number of instructions issued per FU type, per thread (Count)
system.cpu.issuedInstType_0::SimdSha1Hash2            0      0.00%     79.76% # Number of instructions issued per FU type, per thread (Count)
system.cpu.issuedInstType_0::SimdSha256Hash            0      0.00%     79.76% # Number of instructions issued per FU type, per thread (Count)
system.cpu.issuedInstType_0::SimdSha256Hash2            0      0.00%     79.76% # Number of instructions issued per FU type, per thread (Count)
system.cpu.issuedInstType_0::SimdShaSigma2            0      0.00%     79.76% # Number of instructions issued per FU type, per thread (Count)
system.cpu.issuedInstType_0::SimdShaSigma3            0      0.00%     79.76% # Number of instructions issued per FU type, per thread (Count)
system.cpu.issuedInstType_0::SimdSha3               0      0.00%     79.76% # Number of instructions issued per FU type, per thread (Count)
system.cpu.issuedInstType_0::SimdSm4e               0      0.00%     79.76% # Number of instructions issued per FU type, per thread (Count)
system.cpu.issuedInstType_0::SimdCrc                0      0.00%     79.76% # Number of instructions issued per FU type, per thread (Count)
system.cpu.issuedInstType_0::SimdPredAlu            0      0.00%     79.76% # Number of instructions issued per FU type, per thread (Count)
system.cpu.issuedInstType_0::SimdDotProd            0      0.00%     79.76% # Number of instructions issued per FU type, per thread (Count)
system.cpu.issuedInstType_0::Matrix                 0      0.00%     79.76% # Number of instructions issued per FU type, per thread (Count)
system.cpu.issuedInstType_0::MatrixMov              0      0.00%     79.76% # Number of instructions issued per FU type, per thread (Count)
system.cpu.issuedInstType_0::MatrixOP               0      0.00%     79.76% # Number of instructions issued per FU type, per thread (Count)
system.cpu.issuedInstType_0::MemRead              316     12.35%     92.11% # Number of instructions issued per FU type, per thread (Count)
system.cpu.issuedInstType_0::MemWrite             202      7.89%    100.00% # Number of instructions issued per FU type, per thread (Count)
system.cpu.issuedInstType_0::FloatMemRead            0      0.00%    100.00% # Number of instructions issued per FU type, per thread (Count)
system.cpu.issuedInstType_0::FloatMemWrite            0      0.00%    100.00% # Number of instructions issued per FU type, per thread (Count)
system.cpu.issuedInstType_0::InstPrefetch            0      0.00%    100.00% # Number of instructions issued per FU type, per thread (Count)
system.cpu.issuedInstType_0::SimdUnitStrideLoad            0      0.00%    100.00% # Number of instructions issued per FU type, per thread (Count)
system.cpu.issuedInstType_0::SimdUnitStrideStore            0      0.00%    100.00% # Number of instructions issued per FU type, per thread (Count)
system.cpu.issuedInstType_0::SimdUnitStrideMaskLoad            0      0.00%    100.00% # Number of instructions issued per FU type, per thread (Count)
system.cpu.issuedInstType_0::SimdUnitStrideMaskStore            0      0.00%    100.00% # Number of instructions issued per FU type, per thread (Count)
system.cpu.issuedInstType_0::SimdStridedLoad            0      0.00%    100.00% # Number of instructions issued per FU type, per thread (Count)
system.cpu.issuedInstType_0::SimdStridedStore            0      0.00%    100.00% # Number of instructions issued per FU type, per thread (Count)
system.cpu.issuedInstType_0::SimdIndexedLoad            0      0.00%    100.00% # Number of instructions issued per FU type, per thread (Count)
system.cpu.issuedInstType_0::SimdIndexedStore            0      0.00%    100.00% # Number of instructions issued per FU type, per thread (Count)
system.cpu.issuedInstType_0::SimdWholeRegisterLoad            0      0.00%    100.00% # Number of instructions issued per FU type, per thread (Count)
system.cpu.issuedInstType_0::SimdWholeRegisterStore            0      0.00%    100.00% # Number of instructions issued per FU type, per thread (Count)
system.cpu.issuedInstType_0::SimdUnitStrideFaultOnlyFirstLoad            0      0.00%    100.00% # Number of instructions issued per FU type, per thread (Count)
system.cpu.issuedInstType_0::SimdUnitStrideSegmentedLoad            0      0.00%    100.00% # Number of instructions issued per FU type, per thread (Count)
system.cpu.issuedInstType_0::SimdUnitStrideSegmentedStore            0      0.00%    100.00% # Number of instructions issued per FU type, per thread (Count)
system.cpu.issuedInstType_0::SimdUnitStrideSegmentedFaultOnlyFirstLoad            0      0.00%    100.00% # Number of instructions issued per FU type, per thread (Count)
system.cpu.issuedInstType_0::SimdStrideSegmentedLoad            0      0.00%    100.00% # Number of instructions issued per FU type, per thread (Count)
system.cpu.issuedInstType_0::SimdStrideSegmentedStore            0      0.00%    100.00% # Number of instructions issued per FU type, per thread (Count)
system.cpu.issuedInstType_0::SimdExt                0      0.00%    100.00% # Number of instructions issued per FU type, per thread (Count)
system.cpu.issuedInstType_0::SimdFloatExt            0      0.00%    100.00% # Number of instructions issued per FU type, per thread (Count)
system.cpu.issuedInstType_0::SimdConfig             0      0.00%    100.00% # Number of instructions issued per FU type, per thread (Count)
system.cpu.issuedInstType_0::SimdBf16Add            0      0.00%    100.00% # Number of instructions issued per FU type, per thread (Count)
system.cpu.issuedInstType_0::SimdBf16Cmp            0      0.00%    100.00% # Number of instructions issued per FU type, per thread (Count)
system.cpu.issuedInstType_0::SimdBf16Cvt            0      0.00%    100.00% # Number of instructions issued per FU type, per thread (Count)
system.cpu.issuedInstType_0::SimdBf16DotProd            0      0.00%    100.00% # Number of instructions issued per FU type, per thread (Count)
system.cpu.issuedInstType_0::SimdBf16MatMultAcc            0      0.00%    100.00% # Number of instructions issued per FU type, per thread (Count)
system.cpu.issuedInstType_0::SimdBf16Mult            0      0.00%    100.00% # Number of instructions issued per FU type, per thread (Count)
system.cpu.issuedInstType_0::SimdBf16MultAcc            0      0.00%    100.00% # Number of instructions issued per FU type, per thread (Count)
system.cpu.issuedInstType_0::Bf16Cvt                0      0.00%    100.00% # Number of instructions issued per FU type, per thread (Count)
system.cpu.issuedInstType_0::System                 0      0.00%    100.00% # Number of instructions issued per FU type, per thread (Count)
system.cpu.issuedInstType_0::total               2559                       # Number of instructions issued per FU type, per thread (Count)
system.cpu.issueRate                         0.104160                       # Inst issue rate ((Count/Cycle))
system.cpu.fuBusy                                  36                       # FU busy when requested (Count)
system.cpu.fuBusyRate                        0.014068                       # FU busy rate (busy events/executed inst) ((Count/Count))
system.cpu.intInstQueueReads                    29724                       # Number of integer instruction queue reads (Count)
system.cpu.intInstQueueWrites                    2714                       # Number of integer instruction queue writes (Count)
system.cpu.intInstQueueWakeupAccesses            2536                       # Number of integer instruction queue wakeup accesses (Count)
system.cpu.fpInstQueueReads                         0                       # Number of floating instruction queue reads (Count)
system.cpu.fpInstQueueWrites                        0                       # Number of floating instruction queue writes (Count)
system.cpu.fpInstQueueWakeupAccesses                0                       # Number of floating instruction queue wakeup accesses (Count)
system.cpu.vecInstQueueReads                        0                       # Number of vector instruction queue reads (Count)
system.cpu.vecInstQueueWrites                       0                       # Number of vector instruction queue writes (Count)
system.cpu.vecInstQueueWakeupAccesses               0                       # Number of vector instruction queue wakeup accesses (Count)
system.cpu.intAluAccesses                        2590                       # Number of integer alu accesses (Count)
system.cpu.fpAluAccesses                            0                       # Number of floating point alu accesses (Count)
system.cpu.vecAluAccesses                           0                       # Number of vector alu accesses (Count)
system.cpu.numRecvResp                            340                       # Number of received responses (Count)
system.cpu.numRecvRespBytes                      3713                       # Number of received response bytes (Byte)
system.cpu.recvRespAvgBW                         0.15                       # Average bandwidth of received responses ((Byte/Cycle))
system.cpu.recvRespAvgSize                      10.92                       # Average packet size per received response ((Byte/Count))
system.cpu.recvRespAvgRate                       0.01                       # Average rate of received responses per cycle ((Count/Cycle))
system.cpu.recvRespAvgRetryRate                  0.00                       # Average retry rate per received response ((Count/Count))
system.cpu.numSendRetryResp                         0                       # Number of retry responses sent (Count)
system.cpu.numSquashedInsts                        20                       # Number of squashed instructions skipped in execute (Count)
system.cpu.numSwp                                   0                       # Number of swp insts executed (Count)
system.cpu.MemDepUnit__0.insertedLoads            319                       # Number of loads inserted to the mem dependence unit. (Count)
system.cpu.MemDepUnit__0.insertedStores           203                       # Number of stores inserted to the mem dependence unit. (Count)
system.cpu.MemDepUnit__0.conflictingLoads            0                       # Number of conflicting loads. (Count)
system.cpu.MemDepUnit__0.conflictingStores            0                       # Number of conflicting stores. (Count)
system.cpu.MemDepUnit__1.insertedLoads              0                       # Number of loads inserted to the mem dependence unit. (Count)
system.cpu.MemDepUnit__1.insertedStores             0                       # Number of stores inserted to the mem dependence unit. (Count)
system.cpu.MemDepUnit__1.conflictingLoads            0                       # Number of conflicting loads. (Count)
system.cpu.MemDepUnit__1.conflictingStores            0                       # Number of conflicting stores. (Count)
system.cpu.MemDepUnit__2.insertedLoads              0                       # Number of loads inserted to the mem dependence unit. (Count)
system.cpu.MemDepUnit__2.insertedStores             0                       # Number of stores inserted to the mem dependence unit. (Count)
system.cpu.MemDepUnit__2.conflictingLoads            0                       # Number of conflicting loads. (Count)
system.cpu.MemDepUnit__2.conflictingStores            0                       # Number of conflicting stores. (Count)
system.cpu.MemDepUnit__3.insertedLoads              0                       # Number of loads inserted to the mem dependence unit. (Count)
system.cpu.MemDepUnit__3.insertedStores             0                       # Number of stores inserted to the mem dependence unit. (Count)
system.cpu.MemDepUnit__3.conflictingLoads            0                       # Number of conflicting loads. (Count)
system.cpu.MemDepUnit__3.conflictingStores            0                       # Number of conflicting stores. (Count)
system.cpu.bac.fetchTargets                         0                       # Number of fetch targets created  (Count)
system.cpu.bac.branches                           312                       # Number of branches that BAC encountered (Count)
system.cpu.bac.predTakenBranches                  228                       # Number of branches that BAC predicted taken. (Count)
system.cpu.bac.branchesNotLastuOp                   0                       # Number of branches that fetch encountered which are not the last uOp within a macrooperation. Jump to itself. (Count)
system.cpu.bac.branchMisspredict                   10                       # Number of mispredicted branches (Count)
system.cpu.bac.noBranchMisspredict                  0                       # Number of non-branch instructions mispredicted (Count)
system.cpu.bac.squashBranchDecode                   1                       # Number of branches squashed from decode (Count)
system.cpu.bac.squashBranchCommit                   9                       # Number of branches squashed from commit (Count)
system.cpu.bac.preDecUpdate::NoBranch               0                       # Number of branches extracted from the predecoder (Count)
system.cpu.bac.preDecUpdate::Return                 0                       # Number of branches extracted from the predecoder (Count)
system.cpu.bac.preDecUpdate::CallDirect             0                       # Number of branches extracted from the predecoder (Count)
system.cpu.bac.preDecUpdate::CallIndirect            0                       # Number of branches extracted from the predecoder (Count)
system.cpu.bac.preDecUpdate::DirectCond             0                       # Number of branches extracted from the predecoder (Count)
system.cpu.bac.preDecUpdate::DirectUncond            0                       # Number of branches extracted from the predecoder (Count)
system.cpu.bac.preDecUpdate::IndirectCond            0                       # Number of branches extracted from the predecoder (Count)
system.cpu.bac.preDecUpdate::IndirectUncond            0                       # Number of branches extracted from the predecoder (Count)
system.cpu.bac.preDecUpdate::total                  0                       # Number of branches extracted from the predecoder (Count)
system.cpu.bac.noHistByType::NoBranch               0                       # Number and type of branches that were undetected by the BPU. (Count)
system.cpu.bac.noHistByType::Return                 0                       # Number and type of branches that were undetected by the BPU. (Count)
system.cpu.bac.noHistByType::CallDirect             0                       # Number and type of branches that were undetected by the BPU. (Count)
system.cpu.bac.noHistByType::CallIndirect            0                       # Number and type of branches that were undetected by the BPU. (Count)
system.cpu.bac.noHistByType::DirectCond             0                       # Number and type of branches that were undetected by the BPU. (Count)
system.cpu.bac.noHistByType::DirectUncond            0                       # Number and type of branches that were undetected by the BPU. (Count)
system.cpu.bac.noHistByType::IndirectCond            0                       # Number and type of branches that were undetected by the BPU. (Count)
system.cpu.bac.noHistByType::IndirectUncond            0                       # Number and type of branches that were undetected by the BPU. (Count)
system.cpu.bac.noHistByType::total                  0                       # Number and type of branches that were undetected by the BPU. (Count)
system.cpu.bac.typeMissmatch                        0                       # Number branches where the branch type miss match (Count)
system.cpu.bac.multiBranchInst                      0                       # Number branches because its not the last branch. (Count)
system.cpu.bac.ftSizeDist::samples                  0                       # Number of bytes per fetch target (Count)
system.cpu.bac.ftSizeDist::mean                   nan                       # Number of bytes per fetch target (Count)
system.cpu.bac.ftSizeDist::stdev                  nan                       # Number of bytes per fetch target (Count)
system.cpu.bac.ftSizeDist::underflows               0                       # Number of bytes per fetch target (Count)
system.cpu.bac.ftSizeDist::0-3                      0                       # Number of bytes per fetch target (Count)
system.cpu.bac.ftSizeDist::4-7                      0                       # Number of bytes per fetch target (Count)
system.cpu.bac.ftSizeDist::8-11                     0                       # Number of bytes per fetch target (Count)
system.cpu.bac.ftSizeDist::12-15                    0                       # Number of bytes per fetch target (Count)
system.cpu.bac.ftSizeDist::16-19                    0                       # Number of bytes per fetch target (Count)
system.cpu.bac.ftSizeDist::20-23                    0                       # Number of bytes per fetch target (Count)
system.cpu.bac.ftSizeDist::24-27                    0                       # Number of bytes per fetch target (Count)
system.cpu.bac.ftSizeDist::28-31                    0                       # Number of bytes per fetch target (Count)
system.cpu.bac.ftSizeDist::32                       0                       # Number of bytes per fetch target (Count)
system.cpu.bac.ftSizeDist::overflows                0                       # Number of bytes per fetch target (Count)
system.cpu.bac.ftSizeDist::min_value                0                       # Number of bytes per fetch target (Count)
system.cpu.bac.ftSizeDist::max_value                0                       # Number of bytes per fetch target (Count)
system.cpu.bac.ftSizeDist::total                    0                       # Number of bytes per fetch target (Count)
system.cpu.bac.ftNumber::samples                    0                       # Number of fetch target inserted to the FTQ per cycle (Count)
system.cpu.bac.ftNumber::mean                     nan                       # Number of fetch target inserted to the FTQ per cycle (Count)
system.cpu.bac.ftNumber::stdev                    nan                       # Number of fetch target inserted to the FTQ per cycle (Count)
system.cpu.bac.ftNumber::underflows                 0                       # Number of fetch target inserted to the FTQ per cycle (Count)
system.cpu.bac.ftNumber::0                          0                       # Number of fetch target inserted to the FTQ per cycle (Count)
system.cpu.bac.ftNumber::1                          0                       # Number of fetch target inserted to the FTQ per cycle (Count)
system.cpu.bac.ftNumber::2                          0                       # Number of fetch target inserted to the FTQ per cycle (Count)
system.cpu.bac.ftNumber::3                          0                       # Number of fetch target inserted to the FTQ per cycle (Count)
system.cpu.bac.ftNumber::4                          0                       # Number of fetch target inserted to the FTQ per cycle (Count)
system.cpu.bac.ftNumber::overflows                  0                       # Number of fetch target inserted to the FTQ per cycle (Count)
system.cpu.bac.ftNumber::min_value                  0                       # Number of fetch target inserted to the FTQ per cycle (Count)
system.cpu.bac.ftNumber::max_value                  0                       # Number of fetch target inserted to the FTQ per cycle (Count)
system.cpu.bac.ftNumber::total                      0                       # Number of fetch target inserted to the FTQ per cycle (Count)
system.cpu.branchPred.lookups_0::NoBranch            0      0.00%      0.00% # Number of BP lookups (Count)
system.cpu.branchPred.lookups_0::Return            50     16.03%     16.03% # Number of BP lookups (Count)
system.cpu.branchPred.lookups_0::CallDirect           55     17.63%     33.65% # Number of BP lookups (Count)
system.cpu.branchPred.lookups_0::CallIndirect            0      0.00%     33.65% # Number of BP lookups (Count)
system.cpu.branchPred.lookups_0::DirectCond          143     45.83%     79.49% # Number of BP lookups (Count)
system.cpu.branchPred.lookups_0::DirectUncond           64     20.51%    100.00% # Number of BP lookups (Count)
system.cpu.branchPred.lookups_0::IndirectCond            0      0.00%    100.00% # Number of BP lookups (Count)
system.cpu.branchPred.lookups_0::IndirectUncond            0      0.00%    100.00% # Number of BP lookups (Count)
system.cpu.branchPred.lookups_0::total            312                       # Number of BP lookups (Count)
system.cpu.branchPred.squashes_0::NoBranch            0      0.00%      0.00% # Number of branches that got squashed (completely removed) as an earlier branch was mispredicted. (Count)
system.cpu.branchPred.squashes_0::Return            4     10.26%     10.26% # Number of branches that got squashed (completely removed) as an earlier branch was mispredicted. (Count)
system.cpu.branchPred.squashes_0::CallDirect            7     17.95%     28.21% # Number of branches that got squashed (completely removed) as an earlier branch was mispredicted. (Count)
system.cpu.branchPred.squashes_0::CallIndirect            0      0.00%     28.21% # Number of branches that got squashed (completely removed) as an earlier branch was mispredicted. (Count)
system.cpu.branchPred.squashes_0::DirectCond           16     41.03%     69.23% # Number of branches that got squashed (completely removed) as an earlier branch was mispredicted. (Count)
system.cpu.branchPred.squashes_0::DirectUncond           12     30.77%    100.00% # Number of branches that got squashed (completely removed) as an earlier branch was mispredicted. (Count)
system.cpu.branchPred.squashes_0::IndirectCond            0      0.00%    100.00% # Number of branches that got squashed (completely removed) as an earlier branch was mispredicted. (Count)
system.cpu.branchPred.squashes_0::IndirectUncond            0      0.00%    100.00% # Number of branches that got squashed (completely removed) as an earlier branch was mispredicted. (Count)
system.cpu.branchPred.squashes_0::total            39                       # Number of branches that got squashed (completely removed) as an earlier branch was mispredicted. (Count)
system.cpu.branchPred.corrected_0::NoBranch            0      0.00%      0.00% # Number of branches that got corrected but not yet commited. Branches get corrected by decode or after execute. Also a branch misprediction can be detected out-of-order. Therefore, a corrected branch might not end up beeing committed in case an even earlier branch was mispredicted (Count)
system.cpu.branchPred.corrected_0::Return            0      0.00%      0.00% # Number of branches that got corrected but not yet commited. Branches get corrected by decode or after execute. Also a branch misprediction can be detected out-of-order. Therefore, a corrected branch might not end up beeing committed in case an even earlier branch was mispredicted (Count)
system.cpu.branchPred.corrected_0::CallDirect            1     10.00%     10.00% # Number of branches that got corrected but not yet commited. Branches get corrected by decode or after execute. Also a branch misprediction can be detected out-of-order. Therefore, a corrected branch might not end up beeing committed in case an even earlier branch was mispredicted (Count)
system.cpu.branchPred.corrected_0::CallIndirect            0      0.00%     10.00% # Number of branches that got corrected but not yet commited. Branches get corrected by decode or after execute. Also a branch misprediction can be detected out-of-order. Therefore, a corrected branch might not end up beeing committed in case an even earlier branch was mispredicted (Count)
system.cpu.branchPred.corrected_0::DirectCond            9     90.00%    100.00% # Number of branches that got corrected but not yet commited. Branches get corrected by decode or after execute. Also a branch misprediction can be detected out-of-order. Therefore, a corrected branch might not end up beeing committed in case an even earlier branch was mispredicted (Count)
system.cpu.branchPred.corrected_0::DirectUncond            0      0.00%    100.00% # Number of branches that got corrected but not yet commited. Branches get corrected by decode or after execute. Also a branch misprediction can be detected out-of-order. Therefore, a corrected branch might not end up beeing committed in case an even earlier branch was mispredicted (Count)
system.cpu.branchPred.corrected_0::IndirectCond            0      0.00%    100.00% # Number of branches that got corrected but not yet commited. Branches get corrected by decode or after execute. Also a branch misprediction can be detected out-of-order. Therefore, a corrected branch might not end up beeing committed in case an even earlier branch was mispredicted (Count)
system.cpu.branchPred.corrected_0::IndirectUncond            0      0.00%    100.00% # Number of branches that got corrected but not yet commited. Branches get corrected by decode or after execute. Also a branch misprediction can be detected out-of-order. Therefore, a corrected branch might not end up beeing committed in case an even earlier branch was mispredicted (Count)
system.cpu.branchPred.corrected_0::total           10                       # Number of branches that got corrected but not yet commited. Branches get corrected by decode or after execute. Also a branch misprediction can be detected out-of-order. Therefore, a corrected branch might not end up beeing committed in case an even earlier branch was mispredicted (Count)
system.cpu.branchPred.earlyResteers_0::NoBranch            0      0.00%      0.00% # Number of branches that got redirected after decode. (Count)
system.cpu.branchPred.earlyResteers_0::Return            0      0.00%      0.00% # Number of branches that got redirected after decode. (Count)
system.cpu.branchPred.earlyResteers_0::CallDirect            1    100.00%    100.00% # Number of branches that got redirected after decode. (Count)
system.cpu.branchPred.earlyResteers_0::CallIndirect            0      0.00%    100.00% # Number of branches that got redirected after decode. (Count)
system.cpu.branchPred.earlyResteers_0::DirectCond            0      0.00%    100.00% # Number of branches that got redirected after decode. (Count)
system.cpu.branchPred.earlyResteers_0::DirectUncond            0      0.00%    100.00% # Number of branches that got redirected after decode. (Count)
system.cpu.branchPred.earlyResteers_0::IndirectCond            0      0.00%    100.00% # Number of branches that got redirected after decode. (Count)
system.cpu.branchPred.earlyResteers_0::IndirectUncond            0      0.00%    100.00% # Number of branches that got redirected after decode. (Count)
system.cpu.branchPred.earlyResteers_0::total            1                       # Number of branches that got redirected after decode. (Count)
system.cpu.branchPred.committed_0::NoBranch            0      0.00%      0.00% # Number of branches finally committed  (Count)
system.cpu.branchPred.committed_0::Return           49     17.88%     17.88% # Number of branches finally committed  (Count)
system.cpu.branchPred.committed_0::CallDirect           49     17.88%     35.77% # Number of branches finally committed  (Count)
system.cpu.branchPred.committed_0::CallIndirect            0      0.00%     35.77% # Number of branches finally committed  (Count)
system.cpu.branchPred.committed_0::DirectCond          121     44.16%     79.93% # Number of branches finally committed  (Count)
system.cpu.branchPred.committed_0::DirectUncond           55     20.07%    100.00% # Number of branches finally committed  (Count)
system.cpu.branchPred.committed_0::IndirectCond            0      0.00%    100.00% # Number of branches finally committed  (Count)
system.cpu.branchPred.committed_0::IndirectUncond            0      0.00%    100.00% # Number of branches finally committed  (Count)
system.cpu.branchPred.committed_0::total          274                       # Number of branches finally committed  (Count)
system.cpu.branchPred.mispredicted_0::NoBranch            0      0.00%      0.00% # Number of committed branches that were mispredicted. (Count)
system.cpu.branchPred.mispredicted_0::Return            0      0.00%      0.00% # Number of committed branches that were mispredicted. (Count)
system.cpu.branchPred.mispredicted_0::CallDirect            0      0.00%      0.00% # Number of committed branches that were mispredicted. (Count)
system.cpu.branchPred.mispredicted_0::CallIndirect            0      0.00%      0.00% # Number of committed branches that were mispredicted. (Count)
system.cpu.branchPred.mispredicted_0::DirectCond            8    100.00%    100.00% # Number of committed branches that were mispredicted. (Count)
system.cpu.branchPred.mispredicted_0::DirectUncond            0      0.00%    100.00% # Number of committed branches that were mispredicted. (Count)
system.cpu.branchPred.mispredicted_0::IndirectCond            0      0.00%    100.00% # Number of committed branches that were mispredicted. (Count)
system.cpu.branchPred.mispredicted_0::IndirectUncond            0      0.00%    100.00% # Number of committed branches that were mispredicted. (Count)
system.cpu.branchPred.mispredicted_0::total            8                       # Number of committed branches that were mispredicted. (Count)
system.cpu.branchPred.mispredictDueToPredictor_0::NoBranch            0      0.00%      0.00% # Number of committed branches that were mispredicted by the predictor. (Count)
system.cpu.branchPred.mispredictDueToPredictor_0::Return            0      0.00%      0.00% # Number of committed branches that were mispredicted by the predictor. (Count)
system.cpu.branchPred.mispredictDueToPredictor_0::CallDirect            0      0.00%      0.00% # Number of committed branches that were mispredicted by the predictor. (Count)
system.cpu.branchPred.mispredictDueToPredictor_0::CallIndirect            0      0.00%      0.00% # Number of committed branches that were mispredicted by the predictor. (Count)
system.cpu.branchPred.mispredictDueToPredictor_0::DirectCond            8    100.00%    100.00% # Number of committed branches that were mispredicted by the predictor. (Count)
system.cpu.branchPred.mispredictDueToPredictor_0::DirectUncond            0      0.00%    100.00% # Number of committed branches that were mispredicted by the predictor. (Count)
system.cpu.branchPred.mispredictDueToPredictor_0::IndirectCond            0      0.00%    100.00% # Number of committed branches that were mispredicted by the predictor. (Count)
system.cpu.branchPred.mispredictDueToPredictor_0::IndirectUncond            0      0.00%    100.00% # Number of committed branches that were mispredicted by the predictor. (Count)
system.cpu.branchPred.mispredictDueToPredictor_0::total            8                       # Number of committed branches that were mispredicted by the predictor. (Count)
system.cpu.branchPred.mispredictDueToBTBMiss_0::NoBranch            0                       # Number of committed branches that were mispredicted because of a BTB miss. (Count)
system.cpu.branchPred.mispredictDueToBTBMiss_0::Return            0                       # Number of committed branches that were mispredicted because of a BTB miss. (Count)
system.cpu.branchPred.mispredictDueToBTBMiss_0::CallDirect            0                       # Number of committed branches that were mispredicted because of a BTB miss. (Count)
system.cpu.branchPred.mispredictDueToBTBMiss_0::CallIndirect            0                       # Number of committed branches that were mispredicted because of a BTB miss. (Count)
system.cpu.branchPred.mispredictDueToBTBMiss_0::DirectCond            0                       # Number of committed branches that were mispredicted because of a BTB miss. (Count)
system.cpu.branchPred.mispredictDueToBTBMiss_0::DirectUncond            0                       # Number of committed branches that were mispredicted because of a BTB miss. (Count)
system.cpu.branchPred.mispredictDueToBTBMiss_0::IndirectCond            0                       # Number of committed branches that were mispredicted because of a BTB miss. (Count)
system.cpu.branchPred.mispredictDueToBTBMiss_0::IndirectUncond            0                       # Number of committed branches that were mispredicted because of a BTB miss. (Count)
system.cpu.branchPred.mispredictDueToBTBMiss_0::total            0                       # Number of committed branches that were mispredicted because of a BTB miss. (Count)
system.cpu.branchPred.targetProvider_0::NoTarget           84     26.92%     26.92% # The component providing the target for taken branches (Count)
system.cpu.branchPred.targetProvider_0::BTB          178     57.05%     83.97% # The component providing the target for taken branches (Count)
system.cpu.branchPred.targetProvider_0::RAS           50     16.03%    100.00% # The component providing the target for taken branches (Count)
system.cpu.branchPred.targetProvider_0::Indirect            0      0.00%    100.00% # The component providing the target for taken branches (Count)
system.cpu.branchPred.targetProvider_0::total          312                       # The component providing the target for taken branches (Count)
system.cpu.branchPred.targetWrong_0::NoBranch            6     60.00%     60.00% # Number of branches where the target was incorrect or not available at prediction time. (Count)
system.cpu.branchPred.targetWrong_0::Return            4     40.00%    100.00% # Number of branches where the target was incorrect or not available at prediction time. (Count)
system.cpu.branchPred.targetWrong_0::CallDirect            0      0.00%    100.00% # Number of branches where the target was incorrect or not available at prediction time. (Count)
system.cpu.branchPred.targetWrong_0::CallIndirect            0      0.00%    100.00% # Number of branches where the target was incorrect or not available at prediction time. (Count)
system.cpu.branchPred.targetWrong_0::DirectCond            0      0.00%    100.00% # Number of branches where the target was incorrect or not available at prediction time. (Count)
system.cpu.branchPred.targetWrong_0::DirectUncond            0      0.00%    100.00% # Number of branches where the target was incorrect or not available at prediction time. (Count)
system.cpu.branchPred.targetWrong_0::IndirectCond            0      0.00%    100.00% # Number of branches where the target was incorrect or not available at prediction time. (Count)
system.cpu.branchPred.targetWrong_0::IndirectUncond            0      0.00%    100.00% # Number of branches where the target was incorrect or not available at prediction time. (Count)
system.cpu.branchPred.targetWrong_0::total           10                       # Number of branches where the target was incorrect or not available at prediction time. (Count)
system.cpu.branchPred.condPredicted               143                       # Number of conditional branches predicted (Count)
system.cpu.branchPred.condPredictedTaken           62                       # Number of conditional branches predicted as taken (Count)
system.cpu.branchPred.condIncorrect                 8                       # Number of conditional branches incorrect (Count)
system.cpu.branchPred.predTakenBTBMiss              1                       # Number of branches predicted taken but missed in BTB (Count)
system.cpu.branchPred.BTBLookups                  312                       # Number of BTB lookups (Count)
system.cpu.branchPred.BTBUpdates                    6                       # Number of BTB updates (Count)
system.cpu.branchPred.BTBHits                     195                       # Number of BTB hits (Count)
system.cpu.branchPred.BTBHitRatio            0.625000                       # BTB Hit Ratio (Ratio)
system.cpu.branchPred.BTBMispredicted               1                       # Number BTB mispredictions. No target found or target wrong (Count)
system.cpu.branchPred.indirectLookups               0                       # Number of indirect predictor lookups. (Count)
system.cpu.branchPred.indirectHits                  0                       # Number of indirect target hits. (Count)
system.cpu.branchPred.indirectMisses                0                       # Number of indirect misses. (Count)
system.cpu.branchPred.indirectMispredicted            0                       # Number of mispredicted indirect branches. (Count)
system.cpu.branchPred.btb.lookups::NoBranch            0      0.00%      0.00% # Number of BTB lookups (Count)
system.cpu.branchPred.btb.lookups::Return           50     16.03%     16.03% # Number of BTB lookups (Count)
system.cpu.branchPred.btb.lookups::CallDirect           55     17.63%     33.65% # Number of BTB lookups (Count)
system.cpu.branchPred.btb.lookups::CallIndirect            0      0.00%     33.65% # Number of BTB lookups (Count)
system.cpu.branchPred.btb.lookups::DirectCond          143     45.83%     79.49% # Number of BTB lookups (Count)
system.cpu.branchPred.btb.lookups::DirectUncond           64     20.51%    100.00% # Number of BTB lookups (Count)
system.cpu.branchPred.btb.lookups::IndirectCond            0      0.00%    100.00% # Number of BTB lookups (Count)
system.cpu.branchPred.btb.lookups::IndirectUncond            0      0.00%    100.00% # Number of BTB lookups (Count)
system.cpu.branchPred.btb.lookups::total          312                       # Number of BTB lookups (Count)
system.cpu.branchPred.btb.misses::NoBranch            0      0.00%      0.00% # Number of BTB misses (Count)
system.cpu.branchPred.btb.misses::Return           50     42.74%     42.74% # Number of BTB misses (Count)
system.cpu.branchPred.btb.misses::CallDirect            3      2.56%     45.30% # Number of BTB misses (Count)
system.cpu.branchPred.btb.misses::CallIndirect            0      0.00%     45.30% # Number of BTB misses (Count)
system.cpu.branchPred.btb.misses::DirectCond           64     54.70%    100.00% # Number of BTB misses (Count)
system.cpu.branchPred.btb.misses::DirectUncond            0      0.00%    100.00% # Number of BTB misses (Count)
system.cpu.branchPred.btb.misses::IndirectCond            0      0.00%    100.00% # Number of BTB misses (Count)
system.cpu.branchPred.btb.misses::IndirectUncond            0      0.00%    100.00% # Number of BTB misses (Count)
system.cpu.branchPred.btb.misses::total           117                       # Number of BTB misses (Count)
system.cpu.branchPred.btb.updates::NoBranch            0      0.00%      0.00% # Number of BTB updates (Count)
system.cpu.branchPred.btb.updates::Return            0      0.00%      0.00% # Number of BTB updates (Count)
system.cpu.branchPred.btb.updates::CallDirect            1     16.67%     16.67% # Number of BTB updates (Count)
system.cpu.branchPred.btb.updates::CallIndirect            0      0.00%     16.67% # Number of BTB updates (Count)
system.cpu.branchPred.btb.updates::DirectCond            5     83.33%    100.00% # Number of BTB updates (Count)
system.cpu.branchPred.btb.updates::DirectUncond            0      0.00%    100.00% # Number of BTB updates (Count)
system.cpu.branchPred.btb.updates::IndirectCond            0      0.00%    100.00% # Number of BTB updates (Count)
system.cpu.branchPred.btb.updates::IndirectUncond            0      0.00%    100.00% # Number of BTB updates (Count)
system.cpu.branchPred.btb.updates::total            6                       # Number of BTB updates (Count)
system.cpu.branchPred.btb.mispredict::NoBranch            0      0.00%      0.00% # Number of BTB mispredictions. No target found or target wrong. (Count)
system.cpu.branchPred.btb.mispredict::Return            0      0.00%      0.00% # Number of BTB mispredictions. No target found or target wrong. (Count)
system.cpu.branchPred.btb.mispredict::CallDirect            1     16.67%     16.67% # Number of BTB mispredictions. No target found or target wrong. (Count)
system.cpu.branchPred.btb.mispredict::CallIndirect            0      0.00%     16.67% # Number of BTB mispredictions. No target found or target wrong. (Count)
system.cpu.branchPred.btb.mispredict::DirectCond            5     83.33%    100.00% # Number of BTB mispredictions. No target found or target wrong. (Count)
system.cpu.branchPred.btb.mispredict::DirectUncond            0      0.00%    100.00% # Number of BTB mispredictions. No target found or target wrong. (Count)
system.cpu.branchPred.btb.mispredict::IndirectCond            0      0.00%    100.00% # Number of BTB mispredictions. No target found or target wrong. (Count)
system.cpu.branchPred.btb.mispredict::IndirectUncond            0      0.00%    100.00% # Number of BTB mispredictions. No target found or target wrong. (Count)
system.cpu.branchPred.btb.mispredict::total            6                       # Number of BTB mispredictions. No target found or target wrong. (Count)
system.cpu.branchPred.btb.power_state.pwrStateResidencyTicks::UNDEFINED    159750000                       # Cumulative time (in ticks) in various power states (Tick)
system.cpu.branchPred.indirectBranchPred.lookups            0                       # Number of lookups (Count)
system.cpu.branchPred.indirectBranchPred.hits            0                       # Number of hits of a tag (Count)
system.cpu.branchPred.indirectBranchPred.misses            0                       # Number of misses (Count)
system.cpu.branchPred.indirectBranchPred.targetRecords            0                       # Number of targets that where recorded/installed in the cache (Count)
system.cpu.branchPred.indirectBranchPred.indirectRecords            0                       # Number of indirect branches/calls recorded in the indirect hist (Count)
system.cpu.branchPred.indirectBranchPred.speculativeOverflows            0                       # Number of times more than the allowed capacity for speculative branches/calls where in flight and destroy the path history (Count)
system.cpu.branchPred.ras.pushes                   59                       # Number of times a PC was pushed onto the RAS (Count)
system.cpu.branchPred.ras.pops                     57                       # Number of times a PC was poped from the RAS (Count)
system.cpu.branchPred.ras.squashes                 11                       # Number of times the stack operation was squashed due to wrong speculation. (Count)
system.cpu.branchPred.ras.used                     49                       # Number of times the RAS is the provider (Count)
system.cpu.branchPred.ras.correct                  49                       # Number of times the RAS is the provider and the prediction is correct (Count)
system.cpu.branchPred.ras.incorrect                 0                       # Number of times the RAS is the provider and the prediction is wrong (Count)
system.cpu.commit.status::running               24568    100.00%    100.00% # Number of cycles commit is running (Cycle)
system.cpu.commit.commitSquashedInsts             126                       # The number of squashed insts skipped by commit (Count)
system.cpu.commit.commitNonSpecStalls               1                       # The number of times commit has been forced to stall to communicate backwards (Count)
system.cpu.commit.branchMispredicts                 9                       # The number of times a branch was mispredicted (Count)
system.cpu.commit.numCommittedDist::samples        24559                       # Number of insts commited each cycle (Count)
system.cpu.commit.numCommittedDist::mean     0.099923                       # Number of insts commited each cycle (Count)
system.cpu.commit.numCommittedDist::stdev     0.742714                       # Number of insts commited each cycle (Count)
system.cpu.commit.numCommittedDist::underflows            0      0.00%      0.00% # Number of insts commited each cycle (Count)
system.cpu.commit.numCommittedDist::0           23945     97.50%     97.50% # Number of insts commited each cycle (Count)
system.cpu.commit.numCommittedDist::1             156      0.64%     98.14% # Number of insts commited each cycle (Count)
system.cpu.commit.numCommittedDist::2              75      0.31%     98.44% # Number of insts commited each cycle (Count)
system.cpu.commit.numCommittedDist::3              71      0.29%     98.73% # Number of insts commited each cycle (Count)
system.cpu.commit.numCommittedDist::4              63      0.26%     98.99% # Number of insts commited each cycle (Count)
system.cpu.commit.numCommittedDist::5              38      0.15%     99.14% # Number of insts commited each cycle (Count)
system.cpu.commit.numCommittedDist::6              80      0.33%     99.47% # Number of insts commited each cycle (Count)
system.cpu.commit.numCommittedDist::7              35      0.14%     99.61% # Number of insts commited each cycle (Count)
system.cpu.commit.numCommittedDist::8              96      0.39%    100.00% # Number of insts commited each cycle (Count)
system.cpu.commit.numCommittedDist::overflows            0      0.00%    100.00% # Number of insts commited each cycle (Count)
system.cpu.commit.numCommittedDist::min_value            0                       # Number of insts commited each cycle (Count)
system.cpu.commit.numCommittedDist::max_value            8                       # Number of insts commited each cycle (Count)
system.cpu.commit.numCommittedDist::total        24559                       # Number of insts commited each cycle (Count)
system.cpu.commit.amos                              0                       # Number of atomic instructions committed (Count)
system.cpu.commit.membars                           0                       # Number of memory barriers committed (Count)
system.cpu.commit.committedInstType_0::No_OpClass            6      0.24%      0.24% # Class of committed instruction (Count)
system.cpu.commit.committedInstType_0::IntAlu         1946     79.30%     79.54% # Class of committed instruction (Count)
system.cpu.commit.committedInstType_0::IntMult            0      0.00%     79.54% # Class of committed instruction (Count)
system.cpu.commit.committedInstType_0::IntDiv            0      0.00%     79.54% # Class of committed instruction (Count)
system.cpu.commit.committedInstType_0::FloatAdd            0      0.00%     79.54% # Class of committed instruction (Count)
system.cpu.commit.committedInstType_0::FloatCmp            0      0.00%     79.54% # Class of committed instruction (Count)
system.cpu.commit.committedInstType_0::FloatCvt            0      0.00%     79.54% # Class of committed instruction (Count)
system.cpu.commit.committedInstType_0::FloatMult            0      0.00%     79.54% # Class of committed instruction (Count)
system.cpu.commit.committedInstType_0::FloatMultAcc            0      0.00%     79.54% # Class of committed instruction (Count)
system.cpu.commit.committedInstType_0::FloatDiv            0      0.00%     79.54% # Class of committed instruction (Count)
system.cpu.commit.committedInstType_0::FloatMisc            0      0.00%     79.54% # Class of committed instruction (Count)
system.cpu.commit.committedInstType_0::FloatSqrt            0      0.00%     79.54% # Class of committed instruction (Count)
system.cpu.commit.committedInstType_0::SimdAdd            0      0.00%     79.54% # Class of committed instruction (Count)
system.cpu.commit.committedInstType_0::SimdAddAcc            0      0.00%     79.54% # Class of committed instruction (Count)
system.cpu.commit.committedInstType_0::SimdAlu            0      0.00%     79.54% # Class of committed instruction (Count)
system.cpu.commit.committedInstType_0::SimdCmp            0      0.00%     79.54% # Class of committed instruction (Count)
system.cpu.commit.committedInstType_0::SimdCvt            0      0.00%     79.54% # Class of committed instruction (Count)
system.cpu.commit.committedInstType_0::SimdMisc            0      0.00%     79.54% # Class of committed instruction (Count)
system.cpu.commit.committedInstType_0::SimdMult            0      0.00%     79.54% # Class of committed instruction (Count)
system.cpu.commit.committedInstType_0::SimdMultAcc            0      0.00%     79.54% # Class of committed instruction (Count)
system.cpu.commit.committedInstType_0::SimdMatMultAcc            0      0.00%     79.54% # Class of committed instruction (Count)
system.cpu.commit.committedInstType_0::SimdShift            0      0.00%     79.54% # Class of committed instruction (Count)
system.cpu.commit.committedInstType_0::SimdShiftAcc            0      0.00%     79.54% # Class of committed instruction (Count)
system.cpu.commit.committedInstType_0::SimdDiv            0      0.00%     79.54% # Class of committed instruction (Count)
system.cpu.commit.committedInstType_0::SimdSqrt            0      0.00%     79.54% # Class of committed instruction (Count)
system.cpu.commit.committedInstType_0::SimdFloatAdd            0      0.00%     79.54% # Class of committed instruction (Count)
system.cpu.commit.committedInstType_0::SimdFloatAlu            0      0.00%     79.54% # Class of committed instruction (Count)
system.cpu.commit.committedInstType_0::SimdFloatCmp            0      0.00%     79.54% # Class of committed instruction (Count)
system.cpu.commit.committedInstType_0::SimdFloatCvt            0      0.00%     79.54% # Class of committed instruction (Count)
system.cpu.commit.committedInstType_0::SimdFloatDiv            0      0.00%     79.54% # Class of committed instruction (Count)
system.cpu.commit.committedInstType_0::SimdFloatMisc            0      0.00%     79.54% # Class of committed instruction (Count)
system.cpu.commit.committedInstType_0::SimdFloatMult            0      0.00%     79.54% # Class of committed instruction (Count)
system.cpu.commit.committedInstType_0::SimdFloatMultAcc            0      0.00%     79.54% # Class of committed instruction (Count)
system.cpu.commit.committedInstType_0::SimdFloatMatMultAcc            0      0.00%     79.54% # Class of committed instruction (Count)
system.cpu.commit.committedInstType_0::SimdFloatSqrt            0      0.00%     79.54% # Class of committed instruction (Count)
system.cpu.commit.committedInstType_0::SimdReduceAdd            0      0.00%     79.54% # Class of committed instruction (Count)
system.cpu.commit.committedInstType_0::SimdReduceAlu            0      0.00%     79.54% # Class of committed instruction (Count)
system.cpu.commit.committedInstType_0::SimdReduceCmp            0      0.00%     79.54% # Class of committed instruction (Count)
system.cpu.commit.committedInstType_0::SimdFloatReduceAdd            0      0.00%     79.54% # Class of committed instruction (Count)
system.cpu.commit.committedInstType_0::SimdFloatReduceCmp            0      0.00%     79.54% # Class of committed instruction (Count)
system.cpu.commit.committedInstType_0::SimdAes            0      0.00%     79.54% # Class of committed instruction (Count)
system.cpu.commit.committedInstType_0::SimdAesMix            0      0.00%     79.54% # Class of committed instruction (Count)
system.cpu.commit.committedInstType_0::SimdSha1Hash            0      0.00%     79.54% # Class of committed instruction (Count)
system.cpu.commit.committedInstType_0::SimdSha1Hash2            0      0.00%     79.54% # Class of committed instruction (Count)
system.cpu.commit.committedInstType_0::SimdSha256Hash            0      0.00%     79.54% # Class of committed instruction (Count)
system.cpu.commit.committedInstType_0::SimdSha256Hash2            0      0.00%     79.54% # Class of committed instruction (Count)
system.cpu.commit.committedInstType_0::SimdShaSigma2            0      0.00%     79.54% # Class of committed instruction (Count)
system.cpu.commit.committedInstType_0::SimdShaSigma3            0      0.00%     79.54% # Class of committed instruction (Count)
system.cpu.commit.committedInstType_0::SimdSha3            0      0.00%     79.54% # Class of committed instruction (Count)
system.cpu.commit.committedInstType_0::SimdSm4e            0      0.00%     79.54% # Class of committed instruction (Count)
system.cpu.commit.committedInstType_0::SimdCrc            0      0.00%     79.54% # Class of committed instruction (Count)
system.cpu.commit.committedInstType_0::SimdPredAlu            0      0.00%     79.54% # Class of committed instruction (Count)
system.cpu.commit.committedInstType_0::SimdDotProd            0      0.00%     79.54% # Class of committed instruction (Count)
system.cpu.commit.committedInstType_0::Matrix            0      0.00%     79.54% # Class of committed instruction (Count)
system.cpu.commit.committedInstType_0::MatrixMov            0      0.00%     79.54% # Class of committed instruction (Count)
system.cpu.commit.committedInstType_0::MatrixOP            0      0.00%     79.54% # Class of committed instruction (Count)
system.cpu.commit.committedInstType_0::MemRead          309     12.59%     92.14% # Class of committed instruction (Count)
system.cpu.commit.committedInstType_0::MemWrite          193      7.86%    100.00% # Class of committed instruction (Count)
system.cpu.commit.committedInstType_0::FloatMemRead            0      0.00%    100.00% # Class of committed instruction (Count)
system.cpu.commit.committedInstType_0::FloatMemWrite            0      0.00%    100.00% # Class of committed instruction (Count)
system.cpu.commit.committedInstType_0::InstPrefetch            0      0.00%    100.00% # Class of committed instruction (Count)
system.cpu.commit.committedInstType_0::SimdUnitStrideLoad            0      0.00%    100.00% # Class of committed instruction (Count)
system.cpu.commit.committedInstType_0::SimdUnitStrideStore            0      0.00%    100.00% # Class of committed instruction (Count)
system.cpu.commit.committedInstType_0::SimdUnitStrideMaskLoad            0      0.00%    100.00% # Class of committed instruction (Count)
system.cpu.commit.committedInstType_0::SimdUnitStrideMaskStore            0      0.00%    100.00% # Class of committed instruction (Count)
system.cpu.commit.committedInstType_0::SimdStridedLoad            0      0.00%    100.00% # Class of committed instruction (Count)
system.cpu.commit.committedInstType_0::SimdStridedStore            0      0.00%    100.00% # Class of committed instruction (Count)
system.cpu.commit.committedInstType_0::SimdIndexedLoad            0      0.00%    100.00% # Class of committed instruction (Count)
system.cpu.commit.committedInstType_0::SimdIndexedStore            0      0.00%    100.00% # Class of committed instruction (Count)
system.cpu.commit.committedInstType_0::SimdWholeRegisterLoad            0      0.00%    100.00% # Class of committed instruction (Count)
system.cpu.commit.committedInstType_0::SimdWholeRegisterStore            0      0.00%    100.00% # Class of committed instruction (Count)
system.cpu.commit.committedInstType_0::SimdUnitStrideFaultOnlyFirstLoad            0      0.00%    100.00% # Class of committed instruction (Count)
system.cpu.commit.committedInstType_0::SimdUnitStrideSegmentedLoad            0      0.00%    100.00% # Class of committed instruction (Count)
system.cpu.commit.committedInstType_0::SimdUnitStrideSegmentedStore            0      0.00%    100.00% # Class of committed instruction (Count)
system.cpu.commit.committedInstType_0::SimdUnitStrideSegmentedFaultOnlyFirstLoad            0      0.00%    100.00% # Class of committed instruction (Count)
system.cpu.commit.committedInstType_0::SimdStrideSegmentedLoad            0      0.00%    100.00% # Class of committed instruction (Count)
system.cpu.commit.committedInstType_0::SimdStrideSegmentedStore            0      0.00%    100.00% # Class of committed instruction (Count)
system.cpu.commit.committedInstType_0::SimdExt            0      0.00%    100.00% # Class of committed instruction (Count)
system.cpu.commit.committedInstType_0::SimdFloatExt            0      0.00%    100.00% # Class of committed instruction (Count)
system.cpu.commit.committedInstType_0::SimdConfig            0      0.00%    100.00% # Class of committed instruction (Count)
system.cpu.commit.committedInstType_0::SimdBf16Add            0      0.00%    100.00% # Class of committed instruction (Count)
system.cpu.commit.committedInstType_0::SimdBf16Cmp            0      0.00%    100.00% # Class of committed instruction (Count)
system.cpu.commit.committedInstType_0::SimdBf16Cvt            0      0.00%    100.00% # Class of committed instruction (Count)
system.cpu.commit.committedInstType_0::SimdBf16DotProd            0      0.00%    100.00% # Class of committed instruction (Count)
system.cpu.commit.committedInstType_0::SimdBf16MatMultAcc            0      0.00%    100.00% # Class of committed instruction (Count)
system.cpu.commit.committedInstType_0::SimdBf16Mult            0      0.00%    100.00% # Class of committed instruction (Count)
system.cpu.commit.committedInstType_0::SimdBf16MultAcc            0      0.00%    100.00% # Class of committed instruction (Count)
system.cpu.commit.committedInstType_0::Bf16Cvt            0      0.00%    100.00% # Class of committed instruction (Count)
system.cpu.commit.committedInstType_0::System            0      0.00%    100.00% # Class of committed instruction (Count)
system.cpu.commit.committedInstType_0::total         2454                       # Class of committed instruction (Count)
system.cpu.commit.commitEligibleSamples            96                       # number cycles where commit BW limit reached (Cycle)
[...]
system.mem_ctrls.dram.perBankWrBursts::28            0                       # Per bank write bursts (Count)
system.mem_ctrls.dram.perBankWrBursts::29            0                       # Per bank write bursts (Count)
system.mem_ctrls.dram.perBankWrBursts::30            0                       # Per bank write bursts (Count)
system.mem_ctrls.dram.perBankWrBursts::31            0                       # Per bank write bursts (Count)
system.mem_ctrls.dram.totQLat                 4577048                       # Total ticks spent queuing (Tick)
system.mem_ctrls.dram.totBusLat               1082900                       # Total ticks spent in databus transfers (Tick)
system.mem_ctrls.dram.totMemAccLat           10261948                       # Total ticks spent from burst creation until serviced by the DRAM (Tick)
system.mem_ctrls.dram.avgQLat                14083.22                       # Average queueing delay per DRAM burst ((Tick/Count))
system.mem_ctrls.dram.avgBusLat               3332.00                       # Average bus latency per DRAM burst ((Tick/Count))
system.mem_ctrls.dram.avgMemAccLat           31575.22                       # Average memory access latency per DRAM burst ((Tick/Count))
system.mem_ctrls.dram.readRowHits                 247                       # Number of row buffer hits during reads (Count)
system.mem_ctrls.dram.writeRowHits                  0                       # Number of row buffer hits during writes (Count)
system.mem_ctrls.dram.readRowHitRate            76.00                       # Row buffer hit rate for reads (Ratio)
system.mem_ctrls.dram.writeRowHitRate            0.00                       # Row buffer hit rate for writes (Ratio)
system.mem_ctrls.dram.bytesPerActivate::samples          270                       # Bytes accessed per row activation (Byte)
system.mem_ctrls.dram.bytesPerActivate::mean    75.851852                       # Bytes accessed per row activation (Byte)
system.mem_ctrls.dram.bytesPerActivate::stdev   194.119287                       # Bytes accessed per row activation (Byte)
system.mem_ctrls.dram.bytesPerActivate::0-127          207     76.67%     76.67% # Bytes accessed per row activation (Byte)
system.mem_ctrls.dram.bytesPerActivate::128-255           40     14.81%     91.48% # Bytes accessed per row activation (Byte)
system.mem_ctrls.dram.bytesPerActivate::256-383            8      2.96%     94.44% # Bytes accessed per row activation (Byte)
system.mem_ctrls.dram.bytesPerActivate::384-511            5      1.85%     96.30% # Bytes accessed per row activation (Byte)
system.mem_ctrls.dram.bytesPerActivate::640-767            2      0.74%     97.04% # Bytes accessed per row activation (Byte)
system.mem_ctrls.dram.bytesPerActivate::1024-1151            8      2.96%    100.00% # Bytes accessed per row activation (Byte)
system.mem_ctrls.dram.bytesPerActivate::total          270                       # Bytes accessed per row activation (Byte)
system.mem_ctrls.dram.dramBytesRead             20800                       # Total bytes read (Byte)
system.mem_ctrls.dram.dramBytesWritten           3072                       # Total bytes written (Byte)
system.mem_ctrls.dram.avgRdBW              515.253230                       # Average DRAM read bandwidth in MiBytes/s ((Byte/Second))
system.mem_ctrls.dram.avgWrBW               76.098939                       # Average DRAM write bandwidth in MiBytes/s ((Byte/Second))
system.mem_ctrls.dram.peakBW                 19207.00                       # Theoretical peak bandwidth in MiByte/s ((Byte/Second))
system.mem_ctrls.dram.busUtil                    3.08                       # Data bus utilization in percentage (Ratio)
system.mem_ctrls.dram.busUtilRead                2.68                       # Data bus utilization in percentage for reads (Ratio)
system.mem_ctrls.dram.busUtilWrite               0.40                       # Data bus utilization in percentage for writes (Ratio)
system.mem_ctrls.dram.pageHitRate               66.22                       # Row buffer hit rate, read and write combined (Ratio)
system.mem_ctrls.dram.power_state.pwrStateResidencyTicks::UNDEFINED    187834500                       # Cumulative time (in ticks) in various power states (Tick)
system.mem_ctrls.dram.rank0.actEnergy    555137.856000                       # Energy for activate commands per rank (pJ) (Joule)
system.mem_ctrls.dram.rank0.preEnergy    974526.033600                       # Energy for precharge commands per rank (pJ) (Joule)
system.mem_ctrls.dram.rank0.readEnergy   680239.795200                       # Energy for read commands per rank (pJ) (Joule)
system.mem_ctrls.dram.rank0.writeEnergy             0                       # Energy for write commands per rank (pJ) (Joule)
system.mem_ctrls.dram.rank0.refreshEnergy 4055133.297600                       # Energy for refresh commands per rank (pJ) (Joule)
system.mem_ctrls.dram.rank0.actBackEnergy 19020224.865600                       # Energy for active background per rank (pJ) (Joule)
system.mem_ctrls.dram.rank0.preBackEnergy 2284157.971200                       # Energy for precharge background per rank (pJ) (Joule)
system.mem_ctrls.dram.rank0.actPowerDownEnergy            0                       # Energy for active power-down per rank (pJ) (Joule)
system.mem_ctrls.dram.rank0.prePowerDownEnergy            0                       # Energy for precharge power-down per rank (pJ) (Joule)
system.mem_ctrls.dram.rank0.selfRefreshEnergy            0                       # Energy for self refresh per rank (pJ) (Joule)
system.mem_ctrls.dram.rank0.totalEnergy  27569419.819200                       # Total energy per rank (pJ) (Joule)
system.mem_ctrls.dram.rank0.averagePower   682.943875                       # Core power per rank (mW) (Watt)
system.mem_ctrls.dram.rank0.totalIdleTime            0                       # Total Idle time Per DRAM Rank (Tick)
system.mem_ctrls.dram.rank0.pwrStateTime::IDLE      2183720                       # Time in different power states (Tick)
system.mem_ctrls.dram.rank0.pwrStateTime::REF      2100000                       # Time in different power states (Tick)
system.mem_ctrls.dram.rank0.pwrStateTime::SREF            0                       # Time in different power states (Tick)
system.mem_ctrls.dram.rank0.pwrStateTime::PRE_PDN            0                       # Time in different power states (Tick)
system.mem_ctrls.dram.rank0.pwrStateTime::ACT     38259780                       # Time in different power states (Tick)
system.mem_ctrls.dram.rank0.pwrStateTime::ACT_PDN            0                       # Time in different power states (Tick)
system.mem_ctrls.dram.rank1.actEnergy    51459.408000                       # Energy for activate commands per rank (pJ) (Joule)
system.mem_ctrls.dram.rank1.preEnergy    90845.647200                       # Energy for precharge commands per rank (pJ) (Joule)
system.mem_ctrls.dram.rank1.readEnergy   219432.192000                       # Energy for read commands per rank (pJ) (Joule)
system.mem_ctrls.dram.rank1.writeEnergy  14154.336000                       # Energy for write commands per rank (pJ) (Joule)
system.mem_ctrls.dram.rank1.refreshEnergy 4055133.297600                       # Energy for refresh commands per rank (pJ) (Joule)
system.mem_ctrls.dram.rank1.actBackEnergy 11512013.352000                       # Energy for active background per rank (pJ) (Joule)
system.mem_ctrls.dram.rank1.preBackEnergy 7493049.580800                       # Energy for precharge background per rank (pJ) (Joule)
system.mem_ctrls.dram.rank1.actPowerDownEnergy            0                       # Energy for active power-down per rank (pJ) (Joule)
system.mem_ctrls.dram.rank1.prePowerDownEnergy            0                       # Energy for precharge power-down per rank (pJ) (Joule)
system.mem_ctrls.dram.rank1.selfRefreshEnergy            0                       # Energy for self refresh per rank (pJ) (Joule)
system.mem_ctrls.dram.rank1.totalEnergy  23436087.813600                       # Total energy per rank (pJ) (Joule)
system.mem_ctrls.dram.rank1.averagePower   580.553843                       # Core power per rank (mW) (Watt)
system.mem_ctrls.dram.rank1.totalIdleTime            0                       # Total Idle time Per DRAM Rank (Tick)
system.mem_ctrls.dram.rank1.pwrStateTime::IDLE     21945260                       # Time in different power states (Tick)
system.mem_ctrls.dram.rank1.pwrStateTime::REF      2100000                       # Time in different power states (Tick)
system.mem_ctrls.dram.rank1.pwrStateTime::SREF            0                       # Time in different power states (Tick)
system.mem_ctrls.dram.rank1.pwrStateTime::PRE_PDN            0                       # Time in different power states (Tick)
system.mem_ctrls.dram.rank1.pwrStateTime::ACT     22153240                       # Time in different power states (Tick)
system.mem_ctrls.dram.rank1.pwrStateTime::ACT_PDN            0                       # Time in different power states (Tick)
system.mem_ctrls.power_state.pwrStateResidencyTicks::UNDEFINED    187834500                       # Cumulative time (in ticks) in various power states (Tick)
system.membus.transDist::ReadResp                 307                       # Transaction distribution (Count)
system.membus.transDist::WriteReq                  48                       # Transaction distribution (Count)
system.membus.transDist::WriteResp                 48                       # Transaction distribution (Count)
system.membus.transDist::CleanEvict                30                       # Transaction distribution (Count)
system.membus.transDist::ReadExReq                 18                       # Transaction distribution (Count)
system.membus.transDist::ReadExResp                18                       # Transaction distribution (Count)
system.membus.transDist::ReadSharedReq            307                       # Transaction distribution (Count)
system.membus.pktCount_system.l2.mem_side_port::system.mem_ctrls.port          776                       # Packet count per connected requestor and responder (Count)
system.membus.pktCount_system.l2.mem_side_port::total          776                       # Packet count per connected requestor and responder (Count)
system.membus.pktCount::total                     776                       # Packet count per connected requestor and responder (Count)
system.membus.pktSize_system.l2.mem_side_port::system.mem_ctrls.port        22336                       # Cumulative packet size per connected requestor and responder (Byte)
system.membus.pktSize_system.l2.mem_side_port::total        22336                       # Cumulative packet size per connected requestor and responder (Byte)
system.membus.pktSize::total                    22336                       # Cumulative packet size per connected requestor and responder (Byte)
system.membus.snoops                                0                       # Total snoops (Count)
system.membus.snoopTraffic                          0                       # Total snoop traffic (Byte)
system.membus.snoopFanout::samples                373                       # Request fanout histogram (Count)
system.membus.snoopFanout::mean                     0                       # Request fanout histogram (Count)
system.membus.snoopFanout::stdev                    0                       # Request fanout histogram (Count)
system.membus.snoopFanout::underflows               0      0.00%      0.00% # Request fanout histogram (Count)
system.membus.snoopFanout::0                      373    100.00%    100.00% # Request fanout histogram (Count)
system.membus.snoopFanout::1                        0      0.00%    100.00% # Request fanout histogram (Count)
system.membus.snoopFanout::overflows                0      0.00%    100.00% # Request fanout histogram (Count)
system.membus.snoopFanout::min_value                0                       # Request fanout histogram (Count)
system.membus.snoopFanout::max_value                0                       # Request fanout histogram (Count)
system.membus.snoopFanout::total                  373                       # Request fanout histogram (Count)
system.membus.power_state.pwrStateResidencyTicks::UNDEFINED    187834500                       # Cumulative time (in ticks) in various power states (Tick)
system.membus.reqLayer2.occupancy              572500                       # Layer occupancy (ticks) (Tick)
system.membus.reqLayer2.utilization               0.0                       # Layer utilization (Ratio)
system.membus.respLayer1.occupancy            1810230                       # Layer occupancy (ticks) (Tick)
system.membus.respLayer1.utilization              0.0                       # Layer utilization (Ratio)
system.membus.snoop_filter.totRequests            355                       # Total number of requests made to the snoop filter. (Count)
system.membus.snoop_filter.hitSingleRequests           30                       # Number of requests hitting in the snoop filter with a single holder of the requested data. (Count)
system.membus.snoop_filter.hitMultiRequests            0                       # Number of requests hitting in the snoop filter with multiple (>1) holders of the requested data. (Count)
system.membus.snoop_filter.totSnoops                0                       # Total number of snoops made to the snoop filter. (Count)
system.membus.snoop_filter.hitSingleSnoops            0                       # Number of snoops hitting in the snoop filter with a single holder of the requested data. (Count)
system.membus.snoop_filter.hitMultiSnoops            0                       # Number of snoops hitting in the snoop filter with multiple (>1) holders of the requested data. (Count)
system.tol2bus.transDist::ReadResp                332                       # Transaction distribution (Count)
system.tol2bus.transDist::WriteReq                 48                       # Transaction distribution (Count)
system.tol2bus.transDist::WriteResp                48                       # Transaction distribution (Count)
system.tol2bus.transDist::WritebackDirty            8                       # Transaction distribution (Count)
system.tol2bus.transDist::WritebackClean          200                       # Transaction distribution (Count)
system.tol2bus.transDist::CleanEvict              118                       # Transaction distribution (Count)
system.tol2bus.transDist::UpgradeReq                1                       # Transaction distribution (Count)
system.tol2bus.transDist::UpgradeResp               1                       # Transaction distribution (Count)
system.tol2bus.transDist::ReadExReq                23                       # Transaction distribution (Count)
system.tol2bus.transDist::ReadExResp               23                       # Transaction distribution (Count)
system.tol2bus.transDist::ReadCleanReq            246                       # Transaction distribution (Count)
system.tol2bus.transDist::ReadSharedReq            86                       # Transaction distribution (Count)
system.tol2bus.pktCount_system.cpu.icache.mem_side_port::system.l2.cpu_side_port          689                       # Packet count per connected requestor and responder (Count)
system.tol2bus.pktCount_system.cpu.dcache.mem_side_port::system.l2.cpu_side_port          412                       # Packet count per connected requestor and responder (Count)
system.tol2bus.pktCount::total                   1101                       # Packet count per connected requestor and responder (Count)
system.tol2bus.pktSize_system.cpu.icache.mem_side_port::system.l2.cpu_side_port        28352                       # Cumulative packet size per connected requestor and responder (Byte)
system.tol2bus.pktSize_system.cpu.dcache.mem_side_port::system.l2.cpu_side_port         9024                       # Cumulative packet size per connected requestor and responder (Byte)
system.tol2bus.pktSize::total                   37376                       # Cumulative packet size per connected requestor and responder (Byte)
system.tol2bus.snoops                              33                       # Total snoops (Count)
system.tol2bus.snoopTraffic                       192                       # Total snoop traffic (Byte)
system.tol2bus.snoopFanout::samples               434                       # Request fanout histogram (Count)
system.tol2bus.snoopFanout::mean             0.009217                       # Request fanout histogram (Count)
system.tol2bus.snoopFanout::stdev            0.095670                       # Request fanout histogram (Count)
system.tol2bus.snoopFanout::underflows              0      0.00%      0.00% # Request fanout histogram (Count)
system.tol2bus.snoopFanout::0                     430     99.08%     99.08% # Request fanout histogram (Count)
system.tol2bus.snoopFanout::1                       4      0.92%    100.00% # Request fanout histogram (Count)
system.tol2bus.snoopFanout::2                       0      0.00%    100.00% # Request fanout histogram (Count)
system.tol2bus.snoopFanout::3                       0      0.00%    100.00% # Request fanout histogram (Count)
system.tol2bus.snoopFanout::4                       0      0.00%    100.00% # Request fanout histogram (Count)
system.tol2bus.snoopFanout::overflows               0      0.00%    100.00% # Request fanout histogram (Count)
system.tol2bus.snoopFanout::min_value               0                       # Request fanout histogram (Count)
system.tol2bus.snoopFanout::max_value               1                       # Request fanout histogram (Count)
system.tol2bus.snoopFanout::total                 434                       # Request fanout histogram (Count)
system.tol2bus.power_state.pwrStateResidencyTicks::UNDEFINED    187834500                       # Cumulative time (in ticks) in various power states (Tick)
system.tol2bus.reqLayer0.occupancy             582000                       # Layer occupancy (ticks) (Tick)
system.tol2bus.reqLayer0.utilization              0.0                       # Layer utilization (Ratio)
system.tol2bus.respLayer0.occupancy            369000                       # Layer occupancy (ticks) (Tick)
system.tol2bus.respLayer0.utilization             0.0                       # Layer utilization (Ratio)
system.tol2bus.respLayer1.occupancy            188000                       # Layer occupancy (ticks) (Tick)
system.tol2bus.respLayer1.utilization             0.0                       # Layer utilization (Ratio)
system.tol2bus.snoop_filter.totRequests           652                       # Total number of requests made to the snoop filter. (Count)
system.tol2bus.snoop_filter.hitSingleRequests          299                       # Number of requests hitting in the snoop filter with a single holder of the requested data. (Count)
system.tol2bus.snoop_filter.hitMultiRequests            1                       # Number of requests hitting in the snoop filter with multiple (>1) holders of the requested data. (Count)
system.tol2bus.snoop_filter.totSnoops               0                       # Total number of snoops made to the snoop filter. (Count)
system.tol2bus.snoop_filter.hitSingleSnoops            0                       # Number of snoops hitting in the snoop filter with a single holder of the requested data. (Count)
system.tol2bus.snoop_filter.hitMultiSnoops            0                       # Number of snoops hitting in the snoop filter with multiple (>1) holders of the requested data. (Count)
system.voltage_domain.voltage                       1                       # Voltage in Volts (Volt)
system.workload.inst.arm                            0                       # number of arm instructions executed (Count)
system.workload.inst.quiesce                        0                       # number of quiesce instructions executed (Count)

---------- End Simulation Statistics   ----------
