
---------- Begin Simulation Statistics ----------
simSeconds                                   0.001560                       # Number of seconds simulated (Second)
simTicks                                   1560097000                       # Number of ticks simulated (Tick)
finalTick                                 54160054000                       # Number of ticks from beginning of simulation (restored from checkpoints and never reset) (Tick)
simFreq                                  1000000000000                       # The number of ticks per simulated second ((Tick/Second))
hostSeconds                                      0.08                       # Real time elapsed on the host (Second)
hostTickRate                              19683779555                       # The number of ticks simulated per host second (ticks/s) ((Tick/Second))
hostMemory                                    8555608                       # Number of bytes of host memory used (Byte)
simInsts                                        17468                       # Number of instructions simulated (Count)
simOps                                          33351                       # Number of ops (including micro ops) simulated (Count)
hostInstRate                                   220086                       # Simulator instruction rate (inst/s) ((Count/Second))
hostOpRate                                     420175                       # Simulator op (including micro ops) rate (op/s) ((Count/Second))
system.clk_domain.clock                          1000                       # Clock period in ticks (Tick)
system.cpu.numCycles                          3120194                       # Number of cpu cycles simulated (Cycle)
system.cpu.cpi                             178.623426                       # CPI: cycles per instruction (core level) ((Cycle/Count))
system.cpu.ipc                               0.005598                       # IPC: instructions per cycle (core level) ((Count/Cycle))
system.cpu.numWorkItemsStarted                      0                       # Number of work items this cpu started (Count)
system.cpu.numWorkItemsCompleted                    0                       # Number of work items this cpu completed (Count)
system.cpu.issuedInstType_0::No_OpClass            33      0.10%      0.10% # Number of insts issued per FU, per thread (Count)
system.cpu.issuedInstType_0::IntAlu             22775     68.29%     68.39% # Number of insts issued per FU, per thread (Count)
system.cpu.issuedInstType_0::IntMult                0      0.00%     68.39% # Number of insts issued per FU, per thread (Count)
system.cpu.issuedInstType_0::IntDiv                 0      0.00%     68.39% # Number of insts issued per FU, per thread (Count)
system.cpu.issuedInstType_0::FloatAdd               0      0.00%     68.39% # Number of insts issued per FU, per thread (Count)
system.cpu.issuedInstType_0::FloatCmp               0      0.00%     68.39% # Number of insts issued per FU, per thread (Count)
system.cpu.issuedInstType_0::FloatCvt               0      0.00%     68.39% # Number of insts issued per FU, per thread (Count)
system.cpu.issuedInstType_0::FloatMult              0      0.00%     68.39% # Number of insts issued per FU, per thread (Count)
system.cpu.issuedInstType_0::FloatMultAcc            0      0.00%     68.39% # Number of insts issued per FU, per thread (Count)
system.cpu.issuedInstType_0::FloatDiv               0      0.00%     68.39% # Number of insts issued per FU, per thread (Count)
system.cpu.issuedInstType_0::FloatMisc              0      0.00%     68.39% # Number of insts issued per FU, per thread (Count)
system.cpu.issuedInstType_0::FloatSqrt              0      0.00%     68.39% # Number of insts issued per FU, per thread (Count)
system.cpu.issuedInstType_0::SimdAdd                0      0.00%     68.39% # Number of insts issued per FU, per thread (Count)
system.cpu.issuedInstType_0::SimdAddAcc             0      0.00%     68.39% # Number of insts issued per FU, per thread (Count)
system.cpu.issuedInstType_0::SimdAlu                0      0.00%     68.39% # Number of insts issued per FU, per thread (Count)
system.cpu.issuedInstType_0::SimdCmp                0      0.00%     68.39% # Number of insts issued per FU, per thread (Count)
system.cpu.issuedInstType_0::SimdCvt                0      0.00%     68.39% # Number of insts issued per FU, per thread (Count)
system.cpu.issuedInstType_0::SimdMisc               0      0.00%     68.39% # Number of insts issued per FU, per thread (Count)
system.cpu.issuedInstType_0::SimdMult               0      0.00%     68.39% # Number of insts issued per FU, per thread (Count)
system.cpu.issuedInstType_0::SimdMultAcc            0      0.00%     68.39% # Number of insts issued per FU, per thread (Count)
system.cpu.issuedInstType_0::SimdMatMultAcc            0      0.00%     68.39% # Number of insts issued per FU, per thread (Count)
system.cpu.issuedInstType_0::SimdShift              0      0.00%     68.39% # Number of insts issued per FU, per thread (Count)
system.cpu.issuedInstType_0::SimdShiftAcc            0      0.00%     68.39% # Number of insts issued per FU, per thread (Count)
system.cpu.issuedInstType_0::SimdDiv                0      0.00%     68.39% # Number of insts issued per FU, per thread (Count)
system.cpu.issuedInstType_0::SimdSqrt               0      0.00%     68.39% # Number of insts issued per FU, per thread (Count)
system.cpu.issuedInstType_0::SimdFloatAdd            0      0.00%     68.39% # Number of insts issued per FU, per thread (Count)
system.cpu.issuedInstType_0::SimdFloatAlu            0      0.00%     68.39% # Number of insts issued per FU, per thread (Count)
system.cpu.issuedInstType_0::SimdFloatCmp            0      0.00%     68.39% # Number of insts issued per FU, per thread (Count)
system.cpu.issuedInstType_0::SimdFloatCvt            0      0.00%     68.39% # Number of insts issued per FU, per thread (Count)
system.cpu.issuedInstType_0::SimdFloatDiv            0      0.00%     68.39% # Number of insts issued per FU, per thread (Count)
system.cpu.issuedInstType_0::SimdFloatMisc            0      0.00%     68.39% # Number of insts issued per FU, per thread (Count)
system.cpu.issuedInstType_0::SimdFloatMult            0      0.00%     68.39% # Number of insts issued per FU, per thread (Count)
system.cpu.issuedInstType_0::SimdFloatMultAcc            0      0.00%     68.39% # Number of insts issued per FU, per thread (Count)
system.cpu.issuedInstType_0::SimdFloatMatMultAcc            0      0.00%     68.39% # Number of insts issued per FU, per thread (Count)
system.cpu.issuedInstType_0::SimdFloatSqrt            0      0.00%     68.39% # Number of insts issued per FU, per thread (Count)
system.cpu.issuedInstType_0::SimdReduceAdd            0      0.00%     68.39% # Number of insts issued per FU, per thread (Count)
system.cpu.issuedInstType_0::SimdReduceAlu            0      0.00%     68.39% # Number of insts issued per FU, per thread (Count)
system.cpu.issuedInstType_0::SimdReduceCmp            0      0.00%     68.39% # Number of insts issued per FU, per thread (Count)
system.cpu.issuedInstType_0::SimdFloatReduceAdd            0      0.00%     68.39% # Number of insts issued per FU, per thread (Count)
system.cpu.issuedInstType_0::SimdFloatReduceCmp            0      0.00%     68.39% # Number of insts issued per FU, per thread (Count)
system.cpu.issuedInstType_0::SimdAes                0      0.00%     68.39% # Number of insts issued per FU, per thread (Count)
system.cpu.issuedInstType_0::SimdAesMix             0      0.00%     68.39% # Number of insts issued per FU, per thread (Count)
system.cpu.issuedInstType_0::SimdSha1Hash            0      0.00%     68.39% # Number of insts issued per FU, per thread (Count)
system.cpu.issuedInstType_0::SimdSha1Hash2            0      0.00%     68.39% # Number of insts issued per FU, per thread (Count)
system.cpu.issuedInstType_0::SimdSha256Hash            0      0.00%     68.39% # Number of insts issued per FU, per thread (Count)
system.cpu.issuedInstType_0::SimdSha256Hash2            0      0.00%     68.39% # Number of insts issued per FU, per thread (Count)
system.cpu.issuedInstType_0::SimdShaSigma2            0      0.00%     68.39% # Number of insts issued per FU, per thread (Count)
system.cpu.issuedInstType_0::SimdShaSigma3            0      0.00%     68.39% # Number of insts issued per FU, per thread (Count)
system.cpu.issuedInstType_0::SimdSha3               0      0.00%     68.39% # Number of insts issued per FU, per thread (Count)
system.cpu.issuedInstType_0::SimdSm4e               0      0.00%     68.39% # Number of insts issued per FU, per thread (Count)
system.cpu.issuedInstType_0::SimdCrc                0      0.00%     68.39% # Number of insts issued per FU, per thread (Count)
system.cpu.issuedInstType_0::SimdPredAlu            0      0.00%     68.39% # Number of insts issued per FU, per thread (Count)
system.cpu.issuedInstType_0::SimdDotProd            0      0.00%     68.39% # Number of insts issued per FU, per thread (Count)
system.cpu.issuedInstType_0::Matrix                 0      0.00%     68.39% # Number of insts issued per FU, per thread (Count)
system.cpu.issuedInstType_0::MatrixMov              0      0.00%     68.39% # Number of insts issued per FU, per thread (Count)
system.cpu.issuedInstType_0::MatrixOP               0      0.00%     68.39% # Number of insts issued per FU, per thread (Count)
system.cpu.issuedInstType_0::MemRead             2631      7.89%     76.28% # Number of insts issued per FU, per thread (Count)
system.cpu.issuedInstType_0::MemWrite            1768      5.30%     81.58% # Number of insts issued per FU, per thread (Count)
system.cpu.issuedInstType_0::FloatMemRead         3136      9.40%     90.98% # Number of insts issued per FU, per thread (Count)
system.cpu.issuedInstType_0::FloatMemWrite         3008      9.02%    100.00% # Number of insts issued per FU, per thread (Count)
system.cpu.issuedInstType_0::InstPrefetch            0      0.00%    100.00% # Number of insts issued per FU, per thread (Count)
system.cpu.issuedInstType_0::SimdUnitStrideLoad            0      0.00%    100.00% # Number of insts issued per FU, per thread (Count)
system.cpu.issuedInstType_0::SimdUnitStrideStore            0      0.00%    100.00% # Number of insts issued per FU, per thread (Count)
system.cpu.issuedInstType_0::SimdUnitStrideMaskLoad            0      0.00%    100.00% # Number of insts issued per FU, per thread (Count)
system.cpu.issuedInstType_0::SimdUnitStrideMaskStore            0      0.00%    100.00% # Number of insts issued per FU, per thread (Count)
system.cpu.issuedInstType_0::SimdStridedLoad            0      0.00%    100.00% # Number of insts issued per FU, per thread (Count)
system.cpu.issuedInstType_0::SimdStridedStore            0      0.00%    100.00% # Number of insts issued per FU, per thread (Count)
system.cpu.issuedInstType_0::SimdIndexedLoad            0      0.00%    100.00% # Number of insts issued per FU, per thread (Count)
system.cpu.issuedInstType_0::SimdIndexedStore            0      0.00%    100.00% # Number of insts issued per FU, per thread (Count)
system.cpu.issuedInstType_0::SimdWholeRegisterLoad            0      0.00%    100.00% # Number of insts issued per FU, per thread (Count)
system.cpu.issuedInstType_0::SimdWholeRegisterStore            0      0.00%    100.00% # Number of insts issued per FU, per thread (Count)
system.cpu.issuedInstType_0::SimdUnitStrideFaultOnlyFirstLoad            0      0.00%    100.00% # Number of insts issued per FU, per thread (Count)
system.cpu.issuedInstType_0::SimdUnitStrideSegmentedLoad            0      0.00%    100.00% # Number of insts issued per FU, per thread (Count)
system.cpu.issuedInstType_0::SimdUnitStrideSegmentedStore            0      0.00%    100.00% # Number of insts issued per FU, per thread (Count)
system.cpu.issuedInstType_0::SimdUnitStrideSegmentedFaultOnlyFirstLoad            0      0.00%    100.00% # Number of insts issued per FU, per thread (Count)
system.cpu.issuedInstType_0::SimdStrideSegmentedLoad            0      0.00%    100.00% # Number of insts issued per FU, per thread (Count)
system.cpu.issuedInstType_0::SimdStrideSegmentedStore            0      0.00%    100.00% # Number of insts issued per FU, per thread (Count)
system.cpu.issuedInstType_0::SimdExt                0      0.00%    100.00% # Number of insts issued per FU, per thread (Count)
system.cpu.issuedInstType_0::SimdFloatExt            0      0.00%    100.00% # Number of insts issued per FU, per thread (Count)
system.cpu.issuedInstType_0::SimdConfig             0      0.00%    100.00% # Number of insts issued per FU, per thread (Count)
system.cpu.issuedInstType_0::SimdBf16Add            0      0.00%    100.00% # Number of insts issued per FU, per thread (Count)
system.cpu.issuedInstType_0::SimdBf16Cmp            0      0.00%    100.00% # Number of insts issued per FU, per thread (Count)
system.cpu.issuedInstType_0::SimdBf16Cvt            0      0.00%    100.00% # Number of insts issued per FU, per thread (Count)
system.cpu.issuedInstType_0::SimdBf16DotProd            0      0.00%    100.00% # Number of insts issued per FU, per thread (Count)
system.cpu.issuedInstType_0::SimdBf16MatMultAcc            0      0.00%    100.00% # Number of insts issued per FU, per thread (Count)
system.cpu.issuedInstType_0::SimdBf16Mult            0      0.00%    100.00% # Number of insts issued per FU, per thread (Count)
system.cpu.issuedInstType_0::SimdBf16MultAcc            0      0.00%    100.00% # Number of insts issued per FU, per thread (Count)
system.cpu.issuedInstType_0::Bf16Cvt                0      0.00%    100.00% # Number of insts issued per FU, per thread (Count)
system.cpu.issuedInstType_0::System                 0      0.00%    100.00% # Number of insts issued per FU, per thread (Count)
system.cpu.issuedInstType_0::total              33351                       # Number of insts issued per FU, per thread (Count)
system.cpu.commitStats0.numInsts                17468                       # Number of instructions committed (thread level) (Count)
system.cpu.commitStats0.numOps                  33351                       # Number of ops (including micro ops) committed (thread level) (Count)
system.cpu.commitStats0.numInstsNotNOP          17468                       # Number of instructions committed excluding NOPs or prefetches (Count)
system.cpu.commitStats0.numOpsNotNOP            33351                       # Number of Ops (including micro ops) Simulated (Count)
system.cpu.commitStats0.numUserInsts            17468                       # Numbrer of instructions committed in user mode (Count)
system.cpu.commitStats0.numUserOps              33351                       # Number of ops committed in user mode (Count)
system.cpu.commitStats0.ratioUserInsts              1                       # Ratio of instructions committed in user mode (Ratio)
system.cpu.commitStats0.ratioUserOps                1                       # Ratio of ops committed in user mode (Ratio)
system.cpu.commitStats0.cpi                178.623426                       # CPI: cycles per instruction (thread level) ((Cycle/Count))
system.cpu.commitStats0.ipc                  0.005598                       # IPC: instructions per cycle (thread level) ((Count/Cycle))
system.cpu.commitStats0.numMemRefs              10543                       # Number of memory references committed (Count)
system.cpu.commitStats0.numFpInsts               6144                       # Number of float instructions (Count)
system.cpu.commitStats0.numIntInsts             33285                       # Number of integer instructions (Count)
system.cpu.commitStats0.numLoadInsts             5767                       # Number of load instructions (Count)
system.cpu.commitStats0.numStoreInsts            4776                       # Number of store instructions (Count)
system.cpu.commitStats0.numVecInsts                 0                       # Number of vector instructions (Count)
system.cpu.commitStats0.committedInstType::No_OpClass           33      0.10%      0.10% # Class of committed instruction. (Count)
system.cpu.commitStats0.committedInstType::IntAlu        22775     68.29%     68.39% # Class of committed instruction. (Count)
system.cpu.commitStats0.committedInstType::IntMult            0      0.00%     68.39% # Class of committed instruction. (Count)
system.cpu.commitStats0.committedInstType::IntDiv            0      0.00%     68.39% # Class of committed instruction. (Count)
system.cpu.commitStats0.committedInstType::FloatAdd            0      0.00%     68.39% # Class of committed instruction. (Count)
system.cpu.commitStats0.committedInstType::FloatCmp            0      0.00%     68.39% # Class of committed instruction. (Count)
system.cpu.commitStats0.committedInstType::FloatCvt            0      0.00%     68.39% # Class of committed instruction. (Count)
system.cpu.commitStats0.committedInstType::FloatMult            0      0.00%     68.39% # Class of committed instruction. (Count)
system.cpu.commitStats0.committedInstType::FloatMultAcc            0      0.00%     68.39% # Class of committed instruction. (Count)
system.cpu.commitStats0.committedInstType::FloatDiv            0      0.00%     68.39% # Class of committed instruction. (Count)
system.cpu.commitStats0.committedInstType::FloatMisc            0      0.00%     68.39% # Class of committed instruction. (Count)
system.cpu.commitStats0.committedInstType::FloatSqrt            0      0.00%     68.39% # Class of committed instruction. (Count)
system.cpu.commitStats0.committedInstType::SimdAdd            0      0.00%     68.39% # Class of committed instruction. (Count)
system.cpu.commitStats0.committedInstType::SimdAddAcc            0      0.00%     68.39% # Class of committed instruction. (Count)
system.cpu.commitStats0.committedInstType::SimdAlu            0      0.00%     68.39% # Class of committed instruction. (Count)
system.cpu.commitStats0.committedInstType::SimdCmp            0      0.00%     68.39% # Class of committed instruction. (Count)
system.cpu.commitStats0.committedInstType::SimdCvt            0      0.00%     68.39% # Class of committed instruction. (Count)
system.cpu.commitStats0.committedInstType::SimdMisc            0      0.00%     68.39% # Class of committed instruction. (Count)
system.cpu.commitStats0.committedInstType::SimdMult            0      0.00%     68.39% # Class of committed instruction. (Count)
system.cpu.commitStats0.committedInstType::SimdMultAcc            0      0.00%     68.39% # Class of committed instruction. (Count)
system.cpu.commitStats0.committedInstType::SimdMatMultAcc            0      0.00%     68.39% # Class of committed instruction. (Count)
system.cpu.commitStats0.committedInstType::SimdShift            0      0.00%     68.39% # Class of committed instruction. (Count)
system.cpu.commitStats0.committedInstType::SimdShiftAcc            0      0.00%     68.39% # Class of committed instruction. (Count)
system.cpu.commitStats0.committedInstType::SimdDiv            0      0.00%     68.39% # Class of committed instruction. (Count)
system.cpu.commitStats0.committedInstType::SimdSqrt            0      0.00%     68.39% # Class of committed instruction. (Count)
system.cpu.commitStats0.committedInstType::SimdFloatAdd            0      0.00%     68.39% # Class of committed instruction. (Count)
system.cpu.commitStats0.committedInstType::SimdFloatAlu            0      0.00%     68.39% # Class of committed instruction. (Count)
system.cpu.commitStats0.committedInstType::SimdFloatCmp            0      0.00%     68.39% # Class of committed instruction. (Count)
system.cpu.commitStats0.committedInstType::SimdFloatCvt            0      0.00%     68.39% # Class of committed instruction. (Count)
system.cpu.commitStats0.committedInstType::SimdFloatDiv            0      0.00%     68.39% # Class of committed instruction. (Count)
system.cpu.commitStats0.committedInstType::SimdFloatMisc            0      0.00%     68.39% # Class of committed instruction. (Count)
system.cpu.commitStats0.committedInstType::SimdFloatMult            0      0.00%     68.39% # Class of committed instruction. (Count)
system.cpu.commitStats0.committedInstType::SimdFloatMultAcc            0      0.00%     68.39% # Class of committed instruction. (Count)
system.cpu.commitStats0.committedInstType::SimdFloatMatMultAcc            0      0.00%     68.39% # Class of committed instruction. (Count)
system.cpu.commitStats0.committedInstType::SimdFloatSqrt            0      0.00%     68.39% # Class of committed instruction. (Count)
system.cpu.commitStats0.committedInstType::SimdReduceAdd            0      0.00%     68.39% # Class of committed instruction. (Count)
system.cpu.commitStats0.committedInstType::SimdReduceAlu            0      0.00%     68.39% # Class of committed instruction. (Count)
system.cpu.commitStats0.committedInstType::SimdReduceCmp            0      0.00%     68.39% # Class of committed instruction. (Count)
system.cpu.commitStats0.committedInstType::SimdFloatReduceAdd            0      0.00%     68.39% # Class of committed instruction. (Count)
system.cpu.commitStats0.committedInstType::SimdFloatReduceCmp            0      0.00%     68.39% # Class of committed instruction. (Count)
system.cpu.commitStats0.committedInstType::SimdAes            0      0.00%     68.39% # Class of committed instruction. (Count)
system.cpu.commitStats0.committedInstType::SimdAesMix            0      0.00%     68.39% # Class of committed instruction. (Count)
system.cpu.commitStats0.committedInstType::SimdSha1Hash            0      0.00%     68.39% # Class of committed instruction. (Count)
system.cpu.commitStats0.committedInstType::SimdSha1Hash2            0      0.00%     68.39% # Class of committed instruction. (Count)
system.cpu.commitStats0.committedInstType::SimdSha256Hash            0      0.00%     68.39% # Class of committed instruction. (Count)
system.cpu.commitStats0.committedInstType::SimdSha256Hash2            0      0.00%     68.39% # Class of committed instruction. (Count)
system.cpu.commitStats0.committedInstType::SimdShaSigma2            0      0.00%     68.39% # Class of committed instruction. (Count)
system.cpu.commitStats0.committedInstType::SimdShaSigma3            0      0.00%     68.39% # Class of committed instruction. (Count)
system.cpu.commitStats0.committedInstType::SimdSha3            0      0.00%     68.39% # Class of committed instruction. (Count)
system.cpu.commitStats0.committedInstType::SimdSm4e            0      0.00%     68.39% # Class of committed instruction. (Count)
system.cpu.commitStats0.committedInstType::SimdCrc            0      0.00%     68.39% # Class of committed instruction. (Count)
system.cpu.commitStats0.committedInstType::SimdPredAlu            0      0.00%     68.39% # Class of committed instruction. (Count)
system.cpu.commitStats0.committedInstType::SimdDotProd            0      0.00%     68.39% # Class of committed instruction. (Count)
system.cpu.commitStats0.committedInstType::Matrix            0      0.00%     68.39% # Class of committed instruction. (Count)
system.cpu.commitStats0.committedInstType::MatrixMov            0      0.00%     68.39% # Class of committed instruction. (Count)
system.cpu.commitStats0.committedInstType::MatrixOP            0      0.00%     68.39% # Class of committed instruction. (Count)
system.cpu.commitStats0.committedInstType::MemRead         2631      7.89%     76.28% # Class of committed instruction. (Count)
system.cpu.commitStats0.committedInstType::MemWrite         1768      5.30%     81.58% # Class of committed instruction. (Count)
system.cpu.commitStats0.committedInstType::FloatMemRead         3136      9.40%     90.98% # Class of committed instruction. (Count)
system.cpu.commitStats0.committedInstType::FloatMemWrite         3008      9.02%    100.00% # Class of committed instruction. (Count)
system.cpu.commitStats0.committedInstType::InstPrefetch            0      0.00%    100.00% # Class of committed instruction. (Count)
system.cpu.commitStats0.committedInstType::SimdUnitStrideLoad            0      0.00%    100.00% # Class of committed instruction. (Count)
system.cpu.commitStats0.committedInstType::SimdUnitStrideStore            0      0.00%    100.00% # Class of committed instruction. (Count)
system.cpu.commitStats0.committedInstType::SimdUnitStrideMaskLoad            0      0.00%    100.00% # Class of committed instruction. (Count)
system.cpu.commitStats0.committedInstType::SimdUnitStrideMaskStore            0      0.00%    100.00% # Class of committed instruction. (Count)
system.cpu.commitStats0.committedInstType::SimdStridedLoad            0      0.00%    100.00% # Class of committed instruction. (Count)
system.cpu.commitStats0.committedInstType::SimdStridedStore            0      0.00%    100.00% # Class of committed instruction. (Count)
system.cpu.commitStats0.committedInstType::SimdIndexedLoad            0      0.00%    100.00% # Class of committed instruction. (Count)
system.cpu.commitStats0.committedInstType::SimdIndexedStore            0      0.00%    100.00% # Class of committed instruction. (Count)
system.cpu.commitStats0.committedInstType::SimdWholeRegisterLoad            0      0.00%    100.00% # Class of committed instruction. (Count)
system.cpu.commitStats0.committedInstType::SimdWholeRegisterStore            0      0.00%    100.00% # Class of committed instruction. (Count)
system.cpu.commitStats0.committedInstType::SimdUnitStrideFaultOnlyFirstLoad            0      0.00%    100.00% # Class of committed instruction. (Count)
system.cpu.commitStats0.committedInstType::SimdUnitStrideSegmentedLoad            0      0.00%    100.00% # Class of committed instruction. (Count)
system.cpu.commitStats0.committedInstType::SimdUnitStrideSegmentedStore            0      0.00%    100.00% # Class of committed instruction. (Count)
system.cpu.commitStats0.committedInstType::SimdUnitStrideSegmentedFaultOnlyFirstLoad            0      0.00%    100.00% # Class of committed instruction. (Count)
system.cpu.commitStats0.committedInstType::SimdStrideSegmentedLoad            0      0.00%    100.00% # Class of committed instruction. (Count)
system.cpu.commitStats0.committedInstType::SimdStrideSegmentedStore            0      0.00%    100.00% # Class of committed instruction. (Count)
system.cpu.commitStats0.committedInstType::SimdExt            0      0.00%    100.00% # Class of committed instruction. (Count)
system.cpu.commitStats0.committedInstType::SimdFloatExt            0      0.00%    100.00% # Class of committed instruction. (Count)
system.cpu.commitStats0.committedInstType::SimdConfig            0      0.00%    100.00% # Class of committed instruction. (Count)
system.cpu.commitStats0.committedInstType::SimdBf16Add            0      0.00%    100.00% # Class of committed instruction. (Count)
system.cpu.commitStats0.committedInstType::SimdBf16Cmp            0      0.00%    100.00% # Class of committed instruction. (Count)
system.cpu.commitStats0.committedInstType::SimdBf16Cvt            0      0.00%    100.00% # Class of committed instruction. (Count)
system.cpu.commitStats0.committedInstType::SimdBf16DotProd            0      0.00%    100.00% # Class of committed instruction. (Count)
system.cpu.commitStats0.committedInstType::SimdBf16MatMultAcc            0      0.00%    100.00% # Class of committed instruction. (Count)
system.cpu.commitStats0.committedInstType::SimdBf16Mult            0      0.00%    100.00% # Class of committed instruction. (Count)
system.cpu.commitStats0.committedInstType::SimdBf16MultAcc            0      0.00%    100.00% # Class of committed instruction. (Count)
system.cpu.commitStats0.committedInstType::Bf16Cvt            0      0.00%    100.00% # Class of committed instruction. (Count)
system.cpu.commitStats0.committedInstType::System            0      0.00%    100.00% # Class of committed instruction. (Count)
system.cpu.commitStats0.committedInstType::total        33351                       # Class of committed instruction. (Count)
system.cpu.commitStats0.committedControl::IsControl         3492                       # Class of control type instructions committed (Count)
system.cpu.commitStats0.committedControl::IsDirectControl         3171                       # Class of control type instructions committed (Count)
system.cpu.commitStats0.committedControl::IsIndirectControl          321                       # Class of control type instructions committed (Count)
system.cpu.commitStats0.committedControl::IsCondControl         2849                       # Class of control type instructions committed (Count)
system.cpu.commitStats0.committedControl::IsUncondControl          643                       # Class of control type instructions committed (Count)
system.cpu.commitStats0.committedControl::IsCall          193                       # Class of control type instructions committed (Count)
system.cpu.commitStats0.committedControl::IsReturn          193                       # Class of control type instructions committed (Count)
system.cpu.commitStats0.functionCalls             193                       # Number of function calls committed (Count)
system.cpu.commitStats0.numCallsReturns           386                       # Number of function calls and returns committed (Count)
system.cpu.exec_context.thread_0.numMatAluAccesses            0                       # Number of matrix alu accesses (Count)
system.cpu.exec_context.thread_0.numMatInsts            0                       # Number of matrix instructions (Count)
system.cpu.exec_context.thread_0.numIdleCycles            0                       # Number of idle cycles (Cycle)
system.cpu.exec_context.thread_0.numBusyCycles      3120194                       # Number of busy cycles (Cycle)
system.cpu.exec_context.thread_0.notIdleFraction            1                       # Percentage of non-idle cycles (Ratio)
system.cpu.exec_context.thread_0.idleFraction            0                       # Percentage of idle cycles (Ratio)
system.cpu.executeStats0.numInsts               17468                       # Number of executed instructions (Count)
system.cpu.executeStats0.numNop                     0                       # Number of nop insts executed (Count)
system.cpu.executeStats0.numBranches             3492                       # Number of branches executed (Count)
system.cpu.executeStats0.numLoadInsts            5767                       # Number of load instructions executed (Count)
system.cpu.executeStats0.numStoreInsts           4776                       # Number of stores executed (Count)
system.cpu.executeStats0.instRate            0.005598                       # Inst execution rate ((Count/Cycle))
system.cpu.executeStats0.numCCRegReads          14565                       # Number of times the CC registers were read (Count)
system.cpu.executeStats0.numCCRegWrites         11142                       # Number of times the CC registers were written (Count)
system.cpu.executeStats0.numFpAluAccesses         6144                       # Number of float alu accesses (Count)
system.cpu.executeStats0.numFpRegReads           3008                       # Number of times the floating registers were read (Count)
system.cpu.executeStats0.numFpRegWrites          3136                       # Number of times the floating registers were written (Count)
system.cpu.executeStats0.numIntAluAccesses        33285                       # Number of integer alu accesses (Count)
system.cpu.executeStats0.numIntRegReads         38634                       # Number of times the integer registers were read (Count)
system.cpu.executeStats0.numIntRegWrites        19064                       # Number of times the integer registers were written (Count)
system.cpu.executeStats0.numMemRefs             10543                       # Number of memory refs (Count)
system.cpu.executeStats0.numMiscRegReads        17782                       # Number of times the Misc registers were read (Count)
system.cpu.executeStats0.numVecAluAccesses            0                       # Number of vector alu accesses (Count)
system.cpu.executeStats0.numDiscardedOps            0                       # Number of ops (including micro ops) which were discarded before commit (Count)
system.cpu.fetchStats0.numInsts                 17468                       # Number of instructions fetched (thread level) (Count)
system.cpu.fetchStats0.numOps                   33351                       # Number of ops (including micro ops) fetched (thread level) (Count)
system.cpu.fetchStats0.fetchRate             0.005598                       # Number of inst fetches per cycle ((Count/Cycle))
system.cpu.fetchStats0.numBranches               3492                       # Number of branches fetched (Count)
system.cpu.fetchStats0.branchRate            0.001119                       # Number of branch fetches per cycle (Ratio)
system.cpu.fetchStats0.numFetchSuspends             0                       # Number of times Execute suspended instruction fetching (Count)
system.cpu.interrupts.clk_domain.clock           8000                       # Clock period in ticks (Tick)
system.cpu.mmu.dtb.rdAccesses                    5767                       # TLB accesses on read requests (Count)
system.cpu.mmu.dtb.wrAccesses                    4904                       # TLB accesses on write requests (Count)
system.cpu.mmu.dtb.exAccesses                       0                       # TLB accesses on execute (instr) requests (Count)
system.cpu.mmu.dtb.rdMisses                         0                       # TLB misses on read requests (Count)
system.cpu.mmu.dtb.wrMisses                         0                       # TLB misses on write requests (Count)
system.cpu.mmu.dtb.exMisses                         0                       # TLB misses on execute (instr) requests (Count)
system.cpu.mmu.dtb.walker.power_state.pwrStateResidencyTicks::UNDEFINED  54160054000                       # Cumulative time (in ticks) in various power states (Tick)
system.cpu.mmu.itb.rdAccesses                       0                       # TLB accesses on read requests (Count)
system.cpu.mmu.itb.wrAccesses                       0                       # TLB accesses on write requests (Count)
system.cpu.mmu.itb.exAccesses                   22987                       # TLB accesses on execute (instr) requests (Count)
system.cpu.mmu.itb.rdMisses                         0                       # TLB misses on read requests (Count)
system.cpu.mmu.itb.wrMisses                         0                       # TLB misses on write requests (Count)
system.cpu.mmu.itb.exMisses                         0                       # TLB misses on execute (instr) requests (Count)
system.cpu.mmu.itb.walker.power_state.pwrStateResidencyTicks::UNDEFINED  54160054000                       # Cumulative time (in ticks) in various power states (Tick)
system.cpu.power_state.pwrStateResidencyTicks::ON  54160054000                       # Cumulative time (in ticks) in various power states (Tick)
system.cpu.thread_0.numInsts                    17468                       # Number of Instructions committed (Count)
system.cpu.thread_0.numOps                      33351                       # Number of Ops committed (Count)
system.cpu.thread_0.numMemRefs                  10543                       # Number of Memory References (Count)
system.cpu.workload.numSyscalls                     0                       # Number of system calls (Count)
system.cpu_clk_domain.clock                       500                       # Clock period in ticks (Tick)
system.cpu_voltage_domain.voltage                   1                       # Voltage in Volts (Volt)
system.mem_ctrls.avgPriority_cpu.inst::samples     22987.00                       # Average QoS priority value for accepted requests (Count)
system.mem_ctrls.avgPriority_cpu.data::samples      5099.00                       # Average QoS priority value for accepted requests (Count)
system.mem_ctrls.priorityMinLatency      0.000000017492                       # per QoS priority minimum request to response latency (Second)
system.mem_ctrls.priorityMaxLatency      0.001762483652                       # per QoS priority maximum request to response latency (Second)
system.mem_ctrls.numReadWriteTurnArounds           13                       # Number of turnarounds from READ to WRITE (Count)
system.mem_ctrls.numWriteReadTurnArounds           13                       # Number of turnarounds from WRITE to READ (Count)
system.mem_ctrls.numStayReadState               60998                       # Number of times bus staying in READ state (Count)
system.mem_ctrls.numStayWriteState                221                       # Number of times bus staying in WRITE state (Count)
system.mem_ctrls.readReqs                       28754                       # Number of read requests accepted (Count)
system.mem_ctrls.writeReqs                       4904                       # Number of write requests accepted (Count)
system.mem_ctrls.readBursts                     28754                       # Number of controller read bursts, including those serviced by the write queue (Count)
system.mem_ctrls.writeBursts                     4904                       # Number of controller write bursts, including those merged in the write queue (Count)
system.mem_ctrls.servicedByWrQ                    896                       # Number of controller read bursts serviced by the write queue (Count)
system.mem_ctrls.mergedWrBursts                  4676                       # Number of controller write bursts merged with an existing one (Count)
system.mem_ctrls.neitherReadNorWriteReqs            0                       # Number of requests that are neither read nor write (Count)
system.mem_ctrls.avgRdQLen                       1.00                       # Average read queue length when enqueuing ((Count/Tick))
system.mem_ctrls.avgWrQLen                      57.33                       # Average write queue length when enqueuing ((Count/Tick))
system.mem_ctrls.numRdRetry                         0                       # Number of times read queue was full causing retry (Count)
system.mem_ctrls.numWrRetry                         0                       # Number of times write queue was full causing retry (Count)
system.mem_ctrls.readPktSize::0                   288                       # Read request sizes (log2) (Count)
system.mem_ctrls.readPktSize::1                   128                       # Read request sizes (log2) (Count)
system.mem_ctrls.readPktSize::2                    98                       # Read request sizes (log2) (Count)
system.mem_ctrls.readPktSize::3                 28240                       # Read request sizes (log2) (Count)
system.mem_ctrls.readPktSize::4                     0                       # Read request sizes (log2) (Count)
system.mem_ctrls.readPktSize::5                     0                       # Read request sizes (log2) (Count)
system.mem_ctrls.readPktSize::6                     0                       # Read request sizes (log2) (Count)
system.mem_ctrls.writePktSize::0                  384                       # Write request sizes (log2) (Count)
system.mem_ctrls.writePktSize::1                  128                       # Write request sizes (log2) (Count)
system.mem_ctrls.writePktSize::2                   66                       # Write request sizes (log2) (Count)
system.mem_ctrls.writePktSize::3                 4326                       # Write request sizes (log2) (Count)
system.mem_ctrls.writePktSize::4                    0                       # Write request sizes (log2) (Count)
system.mem_ctrls.writePktSize::5                    0                       # Write request sizes (log2) (Count)
system.mem_ctrls.writePktSize::6                    0                       # Write request sizes (log2) (Count)
system.mem_ctrls.rdQLenPdf::0                   27858                       # What read queue length does an incoming req see (Count)
system.mem_ctrls.rdQLenPdf::1                       0                       # What read queue length does an incoming req see (Count)
system.mem_ctrls.rdQLenPdf::2                       0                       # What read queue length does an incoming req see (Count)
system.mem_ctrls.rdQLenPdf::3                       0                       # What read queue length does an incoming req see (Count)
system.mem_ctrls.rdQLenPdf::4                       0                       # What read queue length does an incoming req see (Count)
system.mem_ctrls.rdQLenPdf::5                       0                       # What read queue length does an incoming req see (Count)
system.mem_ctrls.rdQLenPdf::6                       0                       # What read queue length does an incoming req see (Count)
system.mem_ctrls.rdQLenPdf::7                       0                       # What read queue length does an incoming req see (Count)
system.mem_ctrls.rdQLenPdf::8                       0                       # What read queue length does an incoming req see (Count)
system.mem_ctrls.rdQLenPdf::9                       0                       # What read queue length does an incoming req see (Count)
system.mem_ctrls.rdQLenPdf::10                      0                       # What read queue length does an incoming req see (Count)
system.mem_ctrls.rdQLenPdf::11                      0                       # What read queue length does an incoming req see (Count)
system.mem_ctrls.rdQLenPdf::12                      0                       # What read queue length does an incoming req see (Count)
system.mem_ctrls.rdQLenPdf::13                      0                       # What read queue length does an incoming req see (Count)
system.mem_ctrls.rdQLenPdf::14                      0                       # What read queue length does an incoming req see (Count)
system.mem_ctrls.rdQLenPdf::15                      0                       # What read queue length does an incoming req see (Count)
system.mem_ctrls.rdQLenPdf::16                      0                       # What read queue length does an incoming req see (Count)
system.mem_ctrls.rdQLenPdf::17                      0                       # What read queue length does an incoming req see (Count)
system.mem_ctrls.rdQLenPdf::18                      0                       # What read queue length does an incoming req see (Count)
system.mem_ctrls.rdQLenPdf::19                      0                       # What read queue length does an incoming req see (Count)
system.mem_ctrls.rdQLenPdf::20                      0                       # What read queue length does an incoming req see (Count)
system.mem_ctrls.rdQLenPdf::21                      0                       # What read queue length does an incoming req see (Count)
system.mem_ctrls.rdQLenPdf::22                      0                       # What read queue length does an incoming req see (Count)
system.mem_ctrls.rdQLenPdf::23                      0                       # What read queue length does an incoming req see (Count)
system.mem_ctrls.rdQLenPdf::24                      0                       # What read queue length does an incoming req see (Count)
system.mem_ctrls.rdQLenPdf::25                      0                       # What read queue length does an incoming req see (Count)
system.mem_ctrls.rdQLenPdf::26                      0                       # What read queue length does an incoming req see (Count)
system.mem_ctrls.rdQLenPdf::27                      0                       # What read queue length does an incoming req see (Count)
system.mem_ctrls.rdQLenPdf::28                      0                       # What read queue length does an incoming req see (Count)
system.mem_ctrls.rdQLenPdf::29                      0                       # What read queue length does an incoming req see (Count)
system.mem_ctrls.rdQLenPdf::30                      0                       # What read queue length does an incoming req see (Count)
system.mem_ctrls.rdQLenPdf::31                      0                       # What read queue length does an incoming req see (Count)
system.mem_ctrls.rdQLenPdf::32                      0                       # What read queue length does an incoming req see (Count)
system.mem_ctrls.rdQLenPdf::33                      0                       # What read queue length does an incoming req see (Count)
system.mem_ctrls.rdQLenPdf::34                      0                       # What read queue length does an incoming req see (Count)
system.mem_ctrls.rdQLenPdf::35                      0                       # What read queue length does an incoming req see (Count)
system.mem_ctrls.rdQLenPdf::36                      0                       # What read queue length does an incoming req see (Count)
system.mem_ctrls.rdQLenPdf::37                      0                       # What read queue length does an incoming req see (Count)
system.mem_ctrls.rdQLenPdf::38                      0                       # What read queue length does an incoming req see (Count)
system.mem_ctrls.rdQLenPdf::39                      0                       # What read queue length does an incoming req see (Count)
system.mem_ctrls.rdQLenPdf::40                      0                       # What read queue length does an incoming req see (Count)
system.mem_ctrls.rdQLenPdf::41                      0                       # What read queue length does an incoming req see (Count)
system.mem_ctrls.rdQLenPdf::42                      0                       # What read queue length does an incoming req see (Count)
system.mem_ctrls.rdQLenPdf::43                      0                       # What read queue length does an incoming req see (Count)
system.mem_ctrls.rdQLenPdf::44                      0                       # What read queue length does an incoming req see (Count)
system.mem_ctrls.rdQLenPdf::45                      0                       # What read queue length does an incoming req see (Count)
system.mem_ctrls.rdQLenPdf::46                      0                       # What read queue length does an incoming req see (Count)
system.mem_ctrls.rdQLenPdf::47                      0                       # What read queue length does an incoming req see (Count)
system.mem_ctrls.rdQLenPdf::48                      0                       # What read queue length does an incoming req see (Count)
system.mem_ctrls.rdQLenPdf::49                      0                       # What read queue length does an incoming req see (Count)
system.mem_ctrls.rdQLenPdf::50                      0                       # What read queue length does an incoming req see (Count)
system.mem_ctrls.rdQLenPdf::51                      0                       # What read queue length does an incoming req see (Count)
system.mem_ctrls.rdQLenPdf::52                      0                       # What read queue length does an incoming req see (Count)
system.mem_ctrls.rdQLenPdf::53                      0                       # What read queue length does an incoming req see (Count)
system.mem_ctrls.rdQLenPdf::54                      0                       # What read queue length does an incoming req see (Count)
system.mem_ctrls.rdQLenPdf::55                      0                       # What read queue length does an incoming req see (Count)
system.mem_ctrls.rdQLenPdf::56                      0                       # What read queue length does an incoming req see (Count)
system.mem_ctrls.rdQLenPdf::57                      0                       # What read queue length does an incoming req see (Count)
system.mem_ctrls.rdQLenPdf::58                      0                       # What read queue length does an incoming req see (Count)
system.mem_ctrls.rdQLenPdf::59                      0                       # What read queue length does an incoming req see (Count)
system.mem_ctrls.rdQLenPdf::60                      0                       # What read queue length does an incoming req see (Count)
system.mem_ctrls.rdQLenPdf::61                      0                       # What read queue length does an incoming req see (Count)
system.mem_ctrls.rdQLenPdf::62                      0                       # What read queue length does an incoming req see (Count)
system.mem_ctrls.rdQLenPdf::63                      0                       # What read queue length does an incoming req see (Count)
system.mem_ctrls.wrQLenPdf::0                       0                       # What write queue length does an incoming req see (Count)
system.mem_ctrls.wrQLenPdf::1                       0                       # What write queue length does an incoming req see (Count)
system.mem_ctrls.wrQLenPdf::2                       0                       # What write queue length does an incoming req see (Count)
system.mem_ctrls.wrQLenPdf::3                       0                       # What write queue length does an incoming req see (Count)
system.mem_ctrls.wrQLenPdf::4                       0                       # What write queue length does an incoming req see (Count)
system.mem_ctrls.wrQLenPdf::5                       0                       # What write queue length does an incoming req see (Count)
system.mem_ctrls.wrQLenPdf::6                       0                       # What write queue length does an incoming req see (Count)
system.mem_ctrls.wrQLenPdf::7                       0                       # What write queue length does an incoming req see (Count)
system.mem_ctrls.wrQLenPdf::8                       0                       # What write queue length does an incoming req see (Count)
system.mem_ctrls.wrQLenPdf::9                       0                       # What write queue length does an incoming req see (Count)
system.mem_ctrls.wrQLenPdf::10                      0                       # What write queue length does an incoming req see (Count)
system.mem_ctrls.wrQLenPdf::11                      0                       # What write queue length does an incoming req see (Count)
system.mem_ctrls.wrQLenPdf::12                      0                       # What write queue length does an incoming req see (Count)
system.mem_ctrls.wrQLenPdf::13                      0                       # What write queue length does an incoming req see (Count)
system.mem_ctrls.wrQLenPdf::14                      0                       # What write queue length does an incoming req see (Count)
system.mem_ctrls.wrQLenPdf::15                      0                       # What write queue length does an incoming req see (Count)
system.mem_ctrls.wrQLenPdf::16                      0                       # What write queue length does an incoming req see (Count)
system.mem_ctrls.wrQLenPdf::17                      0                       # What write queue length does an incoming req see (Count)
system.mem_ctrls.wrQLenPdf::18                      0                       # What write queue length does an incoming req see (Count)
system.mem_ctrls.wrQLenPdf::19                      0                       # What write queue length does an incoming req see (Count)
system.mem_ctrls.wrQLenPdf::20                      0                       # What write queue length does an incoming req see (Count)
system.mem_ctrls.wrQLenPdf::21                      0                       # What write queue length does an incoming req see (Count)
system.mem_ctrls.wrQLenPdf::22                      0                       # What write queue length does an incoming req see (Count)
system.mem_ctrls.wrQLenPdf::23                      0                       # What write queue length does an incoming req see (Count)
system.mem_ctrls.wrQLenPdf::24                      0                       # What write queue length does an incoming req see (Count)
system.mem_ctrls.wrQLenPdf::25                      0                       # What write queue length does an incoming req see (Count)
system.mem_ctrls.wrQLenPdf::26                      0                       # What write queue length does an incoming req see (Count)
system.mem_ctrls.wrQLenPdf::27                      0                       # What write queue length does an incoming req see (Count)
system.mem_ctrls.wrQLenPdf::28                      0                       # What write queue length does an incoming req see (Count)
system.mem_ctrls.wrQLenPdf::29                      0                       # What write queue length does an incoming req see (Count)
system.mem_ctrls.wrQLenPdf::30                      0                       # What write queue length does an incoming req see (Count)
system.mem_ctrls.wrQLenPdf::31                      0                       # What write queue length does an incoming req see (Count)
system.mem_ctrls.wrQLenPdf::32                      0                       # What write queue length does an incoming req see (Count)
system.mem_ctrls.wrQLenPdf::33                      0                       # What write queue length does an incoming req see (Count)
system.mem_ctrls.wrQLenPdf::34                      0                       # What write queue length does an incoming req see (Count)
system.mem_ctrls.wrQLenPdf::35                      0                       # What write queue length does an incoming req see (Count)
system.mem_ctrls.wrQLenPdf::36                      0                       # What write queue length does an incoming req see (Count)
system.mem_ctrls.wrQLenPdf::37                      0                       # What write queue length does an incoming req see (Count)
system.mem_ctrls.wrQLenPdf::38                      0                       # What write queue length does an incoming req see (Count)
system.mem_ctrls.wrQLenPdf::39                      0                       # What write queue length does an incoming req see (Count)
system.mem_ctrls.wrQLenPdf::40                      0                       # What write queue length does an incoming req see (Count)
system.mem_ctrls.wrQLenPdf::41                      0                       # What write queue length does an incoming req see (Count)
system.mem_ctrls.wrQLenPdf::42                      0                       # What write queue length does an incoming req see (Count)
system.mem_ctrls.wrQLenPdf::43                      0                       # What write queue length does an incoming req see (Count)
system.mem_ctrls.wrQLenPdf::44                      0                       # What write queue length does an incoming req see (Count)
system.mem_ctrls.wrQLenPdf::45                      0                       # What write queue length does an incoming req see (Count)
system.mem_ctrls.wrQLenPdf::46                      0                       # What write queue length does an incoming req see (Count)
system.mem_ctrls.wrQLenPdf::47                     13                       # What write queue length does an incoming req see (Count)
system.mem_ctrls.wrQLenPdf::48                     13                       # What write queue length does an incoming req see (Count)
system.mem_ctrls.wrQLenPdf::49                     13                       # What write queue length does an incoming req see (Count)
system.mem_ctrls.wrQLenPdf::50                     13                       # What write queue length does an incoming req see (Count)
system.mem_ctrls.wrQLenPdf::51                     13                       # What write queue length does an incoming req see (Count)
system.mem_ctrls.wrQLenPdf::52                     13                       # What write queue length does an incoming req see (Count)
system.mem_ctrls.wrQLenPdf::53                     13                       # What write queue length does an incoming req see (Count)
system.mem_ctrls.wrQLenPdf::54                     13                       # What write queue length does an incoming req see (Count)
system.mem_ctrls.wrQLenPdf::55                     13                       # What write queue length does an incoming req see (Count)
system.mem_ctrls.wrQLenPdf::56                     13                       # What write queue length does an incoming req see (Count)
system.mem_ctrls.wrQLenPdf::57                     12                       # What write queue length does an incoming req see (Count)
system.mem_ctrls.wrQLenPdf::58                     12                       # What write queue length does an incoming req see (Count)
system.mem_ctrls.wrQLenPdf::59                     12                       # What write queue length does an incoming req see (Count)
system.mem_ctrls.wrQLenPdf::60                     12                       # What write queue length does an incoming req see (Count)
system.mem_ctrls.wrQLenPdf::61                     12                       # What write queue length does an incoming req see (Count)
system.mem_ctrls.wrQLenPdf::62                     12                       # What write queue length does an incoming req see (Count)
system.mem_ctrls.wrQLenPdf::63                     13                       # What write queue length does an incoming req see (Count)
system.mem_ctrls.wrQLenPdf::64                     13                       # What write queue length does an incoming req see (Count)
system.mem_ctrls.wrQLenPdf::65                      0                       # What write queue length does an incoming req see (Count)
system.mem_ctrls.wrQLenPdf::66                      0                       # What write queue length does an incoming req see (Count)
system.mem_ctrls.wrQLenPdf::67                      0                       # What write queue length does an incoming req see (Count)
system.mem_ctrls.wrQLenPdf::68                      0                       # What write queue length does an incoming req see (Count)
system.mem_ctrls.wrQLenPdf::69                      0                       # What write queue length does an incoming req see (Count)
system.mem_ctrls.wrQLenPdf::70                      0                       # What write queue length does an incoming req see (Count)
system.mem_ctrls.wrQLenPdf::71                      0                       # What write queue length does an incoming req see (Count)
system.mem_ctrls.wrQLenPdf::72                      0                       # What write queue length does an incoming req see (Count)
system.mem_ctrls.wrQLenPdf::73                      0                       # What write queue length does an incoming req see (Count)
system.mem_ctrls.wrQLenPdf::74                      0                       # What write queue length does an incoming req see (Count)
system.mem_ctrls.wrQLenPdf::75                      0                       # What write queue length does an incoming req see (Count)
system.mem_ctrls.wrQLenPdf::76                      0                       # What write queue length does an incoming req see (Count)
system.mem_ctrls.wrQLenPdf::77                      0                       # What write queue length does an incoming req see (Count)
system.mem_ctrls.wrQLenPdf::78                      0                       # What write queue length does an incoming req see (Count)
system.mem_ctrls.wrQLenPdf::79                      0                       # What write queue length does an incoming req see (Count)
system.mem_ctrls.wrQLenPdf::80                      0                       # What write queue length does an incoming req see (Count)
system.mem_ctrls.wrQLenPdf::81                      0                       # What write queue length does an incoming req see (Count)
system.mem_ctrls.wrQLenPdf::82                      0                       # What write queue length does an incoming req see (Count)
system.mem_ctrls.wrQLenPdf::83                      0                       # What write queue length does an incoming req see (Count)
system.mem_ctrls.wrQLenPdf::84                      0                       # What write queue length does an incoming req see (Count)
system.mem_ctrls.wrQLenPdf::85                      0                       # What write queue length does an incoming req see (Count)
system.mem_ctrls.wrQLenPdf::86                      0                       # What write queue length does an incoming req see (Count)
system.mem_ctrls.wrQLenPdf::87                      0                       # What write queue length does an incoming req see (Count)
system.mem_ctrls.wrQLenPdf::88                      0                       # What write queue length does an incoming req see (Count)
system.mem_ctrls.wrQLenPdf::89                      0                       # What write queue length does an incoming req see (Count)
system.mem_ctrls.wrQLenPdf::90                      0                       # What write queue length does an incoming req see (Count)
system.mem_ctrls.wrQLenPdf::91                      0                       # What write queue length does an incoming req see (Count)
system.mem_ctrls.wrQLenPdf::92                      0                       # What write queue length does an incoming req see (Count)
system.mem_ctrls.wrQLenPdf::93                      0                       # What write queue length does an incoming req see (Count)
system.mem_ctrls.wrQLenPdf::94                      0                       # What write queue length does an incoming req see (Count)
system.mem_ctrls.wrQLenPdf::95                      0                       # What write queue length does an incoming req see (Count)
system.mem_ctrls.wrQLenPdf::96                      0                       # What write queue length does an incoming req see (Count)
system.mem_ctrls.wrQLenPdf::97                      0                       # What write queue length does an incoming req see (Count)
system.mem_ctrls.wrQLenPdf::98                      0                       # What write queue length does an incoming req see (Count)
system.mem_ctrls.wrQLenPdf::99                      0                       # What write queue length does an incoming req see (Count)
system.mem_ctrls.wrQLenPdf::100                     0                       # What write queue length does an incoming req see (Count)
system.mem_ctrls.wrQLenPdf::101                     0                       # What write queue length does an incoming req see (Count)
system.mem_ctrls.wrQLenPdf::102                     0                       # What write queue length does an incoming req see (Count)
system.mem_ctrls.wrQLenPdf::103                     0                       # What write queue length does an incoming req see (Count)
system.mem_ctrls.wrQLenPdf::104                     0                       # What write queue length does an incoming req see (Count)
system.mem_ctrls.wrQLenPdf::105                     0                       # What write queue length does an incoming req see (Count)
system.mem_ctrls.wrQLenPdf::106                     0                       # What write queue length does an incoming req see (Count)
system.mem_ctrls.wrQLenPdf::107                     0                       # What write queue length does an incoming req see (Count)
system.mem_ctrls.wrQLenPdf::108                     0                       # What write queue length does an incoming req see (Count)
system.mem_ctrls.wrQLenPdf::109                     0                       # What write queue length does an incoming req see (Count)
system.mem_ctrls.wrQLenPdf::110                     0                       # What write queue length does an incoming req see (Count)
system.mem_ctrls.wrQLenPdf::111                     0                       # What write queue length does an incoming req see (Count)
system.mem_ctrls.wrQLenPdf::112                     0                       # What write queue length does an incoming req see (Count)
system.mem_ctrls.wrQLenPdf::113                     0                       # What write queue length does an incoming req see (Count)
system.mem_ctrls.wrQLenPdf::114                     0                       # What write queue length does an incoming req see (Count)
system.mem_ctrls.wrQLenPdf::115                     0                       # What write queue length does an incoming req see (Count)
system.mem_ctrls.wrQLenPdf::116                     0                       # What write queue length does an incoming req see (Count)
system.mem_ctrls.wrQLenPdf::117                     0                       # What write queue length does an incoming req see (Count)
system.mem_ctrls.wrQLenPdf::118                     0                       # What write queue length does an incoming req see (Count)
system.mem_ctrls.wrQLenPdf::119                     0                       # What write queue length does an incoming req see (Count)
system.mem_ctrls.wrQLenPdf::120                     0                       # What write queue length does an incoming req see (Count)
system.mem_ctrls.wrQLenPdf::121                     0                       # What write queue length does an incoming req see (Count)
system.mem_ctrls.wrQLenPdf::122                     0                       # What write queue length does an incoming req see (Count)
system.mem_ctrls.wrQLenPdf::123                     0                       # What write queue length does an incoming req see (Count)
system.mem_ctrls.wrQLenPdf::124                     0                       # What write queue length does an incoming req see (Count)
system.mem_ctrls.wrQLenPdf::125                     0                       # What write queue length does an incoming req see (Count)
system.mem_ctrls.wrQLenPdf::126                     0                       # What write queue length does an incoming req see (Count)
system.mem_ctrls.wrQLenPdf::127                     0                       # What write queue length does an incoming req see (Count)
system.mem_ctrls.rdPerTurnAround::samples           13                       # Reads before turning the bus around for writes (Count)
system.mem_ctrls.rdPerTurnAround::mean    2148.461538                       # Reads before turning the bus around for writes (Count)
system.mem_ctrls.rdPerTurnAround::gmean   2031.329916                       # Reads before turning the bus around for writes (Count)
system.mem_ctrls.rdPerTurnAround::stdev    739.446935                       # Reads before turning the bus around for writes (Count)
system.mem_ctrls.rdPerTurnAround::896-959            1      7.69%      7.69% # Reads before turning the bus around for writes (Count)
system.mem_ctrls.rdPerTurnAround::1728-1791            6     46.15%     53.85% # Reads before turning the bus around for writes (Count)
system.mem_ctrls.rdPerTurnAround::1792-1855            1      7.69%     61.54% # Reads before turning the bus around for writes (Count)
system.mem_ctrls.rdPerTurnAround::2560-2623            2     15.38%     76.92% # Reads before turning the bus around for writes (Count)
system.mem_ctrls.rdPerTurnAround::2624-2687            1      7.69%     84.62% # Reads before turning the bus around for writes (Count)
system.mem_ctrls.rdPerTurnAround::3392-3455            2     15.38%    100.00% # Reads before turning the bus around for writes (Count)
system.mem_ctrls.rdPerTurnAround::total            13                       # Reads before turning the bus around for writes (Count)
system.mem_ctrls.wrPerTurnAround::samples           13                       # Writes before turning the bus around for reads (Count)
system.mem_ctrls.wrPerTurnAround::mean             18                       # Writes before turning the bus around for reads (Count)
system.mem_ctrls.wrPerTurnAround::gmean     18.000000                       # Writes before turning the bus around for reads (Count)
system.mem_ctrls.wrPerTurnAround::18               13    100.00%    100.00% # Writes before turning the bus around for reads (Count)
system.mem_ctrls.wrPerTurnAround::total            13                       # Writes before turning the bus around for reads (Count)
system.mem_ctrls.bytesReadWrQ                   57344                       # Total number of bytes read from write queue (Byte)
system.mem_ctrls.bytesReadSys                  226856                       # Total read bytes from the system interface side (Byte)
system.mem_ctrls.bytesWrittenSys                35384                       # Total written bytes from the system interface side (Byte)
system.mem_ctrls.avgRdBWSys              145411471.20980299                       # Average system read bandwidth in Byte/s ((Byte/Second))
system.mem_ctrls.avgWrBWSys              22680641.01142429                       # Average system write bandwidth in Byte/s ((Byte/Second))
system.mem_ctrls.totGap                    1560097000                       # Total gap between requests (Tick)
system.mem_ctrls.avgGap                      46351.45                       # Average gap between requests ((Tick/Count))
system.mem_ctrls.requestorReadBytes::cpu.inst       183896                       # Per-requestor bytes read from memory (Byte)
system.mem_ctrls.requestorReadBytes::cpu.data        36786                       # Per-requestor bytes read from memory (Byte)
system.mem_ctrls.requestorWriteBytes::cpu.data         1681                       # Per-requestor bytes write to memory (Byte)
system.mem_ctrls.requestorReadRate::cpu.inst 117874721.892292588949                       # Per-requestor bytes read from memory rate ((Byte/Second))
system.mem_ctrls.requestorReadRate::cpu.data 23579303.081795554608                       # Per-requestor bytes read from memory rate ((Byte/Second))
system.mem_ctrls.requestorWriteRate::cpu.data 1077497.104346716776                       # Per-requestor bytes write to memory rate ((Byte/Second))
system.mem_ctrls.requestorReadAccesses::cpu.inst        22987                       # Per-requestor read serviced memory accesses (Count)
system.mem_ctrls.requestorReadAccesses::cpu.data         5767                       # Per-requestor read serviced memory accesses (Count)
system.mem_ctrls.requestorWriteAccesses::cpu.data         4904                       # Per-requestor write serviced memory accesses (Count)
system.mem_ctrls.requestorReadTotalLat::cpu.inst    483118400                       # Per-requestor read total memory access latency (Tick)
system.mem_ctrls.requestorReadTotalLat::cpu.data    109004232                       # Per-requestor read total memory access latency (Tick)
system.mem_ctrls.requestorWriteTotalLat::cpu.data  90142249764                       # Per-requestor write total memory access latency (Tick)
system.mem_ctrls.requestorReadAvgLat::cpu.inst     21017.03                       # Per-requestor read average memory access latency ((Tick/Count))
system.mem_ctrls.requestorReadAvgLat::cpu.data     18901.38                       # Per-requestor read average memory access latency ((Tick/Count))
system.mem_ctrls.requestorWriteAvgLat::cpu.data  18381372.30                       # Per-requestor write average memory access latency ((Tick/Count))
system.mem_ctrls.dram.bytesRead::cpu.inst       183896                       # Number of bytes read from this memory (Byte)
system.mem_ctrls.dram.bytesRead::cpu.data        42960                       # Number of bytes read from this memory (Byte)
system.mem_ctrls.dram.bytesRead::total         226856                       # Number of bytes read from this memory (Byte)
system.mem_ctrls.dram.bytesInstRead::cpu.inst       183896                       # Number of instructions bytes read from this memory (Byte)
system.mem_ctrls.dram.bytesInstRead::total       183896                       # Number of instructions bytes read from this memory (Byte)
system.mem_ctrls.dram.bytesWritten::cpu.data        35384                       # Number of bytes written to this memory (Byte)
system.mem_ctrls.dram.bytesWritten::total        35384                       # Number of bytes written to this memory (Byte)
system.mem_ctrls.dram.numReads::cpu.inst        22987                       # Number of read requests responded to by this memory (Count)
system.mem_ctrls.dram.numReads::cpu.data         5767                       # Number of read requests responded to by this memory (Count)
system.mem_ctrls.dram.numReads::total           28754                       # Number of read requests responded to by this memory (Count)
system.mem_ctrls.dram.numWrites::cpu.data         4904                       # Number of write requests responded to by this memory (Count)
system.mem_ctrls.dram.numWrites::total           4904                       # Number of write requests responded to by this memory (Count)
system.mem_ctrls.dram.bwRead::cpu.inst      117874722                       # Total read bandwidth from this memory ((Byte/Second))
system.mem_ctrls.dram.bwRead::cpu.data       27536749                       # Total read bandwidth from this memory ((Byte/Second))
system.mem_ctrls.dram.bwRead::total         145411471                       # Total read bandwidth from this memory ((Byte/Second))
system.mem_ctrls.dram.bwInstRead::cpu.inst    117874722                       # Instruction read bandwidth from this memory ((Byte/Second))
system.mem_ctrls.dram.bwInstRead::total     117874722                       # Instruction read bandwidth from this memory ((Byte/Second))
system.mem_ctrls.dram.bwWrite::cpu.data      22680641                       # Write bandwidth from this memory ((Byte/Second))
system.mem_ctrls.dram.bwWrite::total         22680641                       # Write bandwidth from this memory ((Byte/Second))
system.mem_ctrls.dram.bwTotal::cpu.inst     117874722                       # Total bandwidth to/from this memory ((Byte/Second))
system.mem_ctrls.dram.bwTotal::cpu.data      50217390                       # Total bandwidth to/from this memory ((Byte/Second))
system.mem_ctrls.dram.bwTotal::total        168092112                       # Total bandwidth to/from this memory ((Byte/Second))
system.mem_ctrls.dram.readBursts                27858                       # Number of DRAM read bursts (Count)
system.mem_ctrls.dram.writeBursts                 234                       # Number of DRAM write bursts (Count)
system.mem_ctrls.dram.perBankRdBursts::0         8200                       # Per bank write bursts (Count)
system.mem_ctrls.dram.perBankRdBursts::1            3                       # Per bank write bursts (Count)
system.mem_ctrls.dram.perBankRdBursts::2            0                       # Per bank write bursts (Count)
system.mem_ctrls.dram.perBankRdBursts::3            0                       # Per bank write bursts (Count)
system.mem_ctrls.dram.perBankRdBursts::4            0                       # Per bank write bursts (Count)
system.mem_ctrls.dram.perBankRdBursts::5            0                       # Per bank write bursts (Count)
system.mem_ctrls.dram.perBankRdBursts::6            0                       # Per bank write bursts (Count)
system.mem_ctrls.dram.perBankRdBursts::7            0                       # Per bank write bursts (Count)
system.mem_ctrls.dram.perBankRdBursts::8         9088                       # Per bank write bursts (Count)
system.mem_ctrls.dram.perBankRdBursts::9            0                       # Per bank write bursts (Count)
system.mem_ctrls.dram.perBankRdBursts::10            0                       # Per bank write bursts (Count)
system.mem_ctrls.dram.perBankRdBursts::11         5696                       # Per bank write bursts (Count)
system.mem_ctrls.dram.perBankRdBursts::12            0                       # Per bank write bursts (Count)
system.mem_ctrls.dram.perBankRdBursts::13            0                       # Per bank write bursts (Count)
system.mem_ctrls.dram.perBankRdBursts::14            0                       # Per bank write bursts (Count)
system.mem_ctrls.dram.perBankRdBursts::15            0                       # Per bank write bursts (Count)
system.mem_ctrls.dram.perBankRdBursts::16            0                       # Per bank write bursts (Count)
system.mem_ctrls.dram.perBankRdBursts::17            0                       # Per bank write bursts (Count)
system.mem_ctrls.dram.perBankRdBursts::18          256                       # Per bank write bursts (Count)
system.mem_ctrls.dram.perBankRdBursts::19           64                       # Per bank write bursts (Count)
system.mem_ctrls.dram.perBankRdBursts::20            0                       # Per bank write bursts (Count)
system.mem_ctrls.dram.perBankRdBursts::21          128                       # Per bank write bursts (Count)
system.mem_ctrls.dram.perBankRdBursts::22          202                       # Per bank write bursts (Count)
system.mem_ctrls.dram.perBankRdBursts::23          288                       # Per bank write bursts (Count)
system.mem_ctrls.dram.perBankRdBursts::24          344                       # Per bank write bursts (Count)
system.mem_ctrls.dram.perBankRdBursts::25          344                       # Per bank write bursts (Count)
system.mem_ctrls.dram.perBankRdBursts::26         2428                       # Per bank write bursts (Count)
system.mem_ctrls.dram.perBankRdBursts::27            0                       # Per bank write bursts (Count)
system.mem_ctrls.dram.perBankRdBursts::28            0                       # Per bank write bursts (Count)
system.mem_ctrls.dram.perBankRdBursts::29            0                       # Per bank write bursts (Count)
system.mem_ctrls.dram.perBankRdBursts::30            0                       # Per bank write bursts (Count)
system.mem_ctrls.dram.perBankRdBursts::31          817                       # Per bank write bursts (Count)
system.mem_ctrls.dram.perBankWrBursts::0            0                       # Per bank write bursts (Count)
system.mem_ctrls.dram.perBankWrBursts::1            0                       # Per bank write bursts (Count)
system.mem_ctrls.dram.perBankWrBursts::2            0                       # Per bank write bursts (Count)
system.mem_ctrls.dram.perBankWrBursts::3            0                       # Per bank write bursts (Count)
system.mem_ctrls.dram.perBankWrBursts::4            0                       # Per bank write bursts (Count)
system.mem_ctrls.dram.perBankWrBursts::5            0                       # Per bank write bursts (Count)
system.mem_ctrls.dram.perBankWrBursts::6            0                       # Per bank write bursts (Count)
system.mem_ctrls.dram.perBankWrBursts::7            0                       # Per bank write bursts (Count)
system.mem_ctrls.dram.perBankWrBursts::8            0                       # Per bank write bursts (Count)
system.mem_ctrls.dram.perBankWrBursts::9            0                       # Per bank write bursts (Count)
system.mem_ctrls.dram.perBankWrBursts::10            0                       # Per bank write bursts (Count)
system.mem_ctrls.dram.perBankWrBursts::11            0                       # Per bank write bursts (Count)
system.mem_ctrls.dram.perBankWrBursts::12            0                       # Per bank write bursts (Count)
system.mem_ctrls.dram.perBankWrBursts::13            0                       # Per bank write bursts (Count)
system.mem_ctrls.dram.perBankWrBursts::14            0                       # Per bank write bursts (Count)
system.mem_ctrls.dram.perBankWrBursts::15            0                       # Per bank write bursts (Count)
system.mem_ctrls.dram.perBankWrBursts::16            0                       # Per bank write bursts (Count)
system.mem_ctrls.dram.perBankWrBursts::17            0                       # Per bank write bursts (Count)
system.mem_ctrls.dram.perBankWrBursts::18            0                       # Per bank write bursts (Count)
system.mem_ctrls.dram.perBankWrBursts::19            0                       # Per bank write bursts (Count)
system.mem_ctrls.dram.perBankWrBursts::20            0                       # Per bank write bursts (Count)
[...]
system.mem_ctrls.dram.perBankRdBursts::21          266                       # Per bank write bursts (Count)
system.mem_ctrls.dram.perBankRdBursts::22          476                       # Per bank write bursts (Count)
system.mem_ctrls.dram.perBankRdBursts::23         2543                       # Per bank write bursts (Count)
system.mem_ctrls.dram.perBankRdBursts::24         4371                       # Per bank write bursts (Count)
system.mem_ctrls.dram.perBankRdBursts::25         3952                       # Per bank write bursts (Count)
system.mem_ctrls.dram.perBankRdBursts::26         6860                       # Per bank write bursts (Count)
system.mem_ctrls.dram.perBankRdBursts::27         4245                       # Per bank write bursts (Count)
system.mem_ctrls.dram.perBankRdBursts::28         2587                       # Per bank write bursts (Count)
system.mem_ctrls.dram.perBankRdBursts::29          554                       # Per bank write bursts (Count)
system.mem_ctrls.dram.perBankRdBursts::30            0                       # Per bank write bursts (Count)
system.mem_ctrls.dram.perBankRdBursts::31         2741                       # Per bank write bursts (Count)
system.mem_ctrls.dram.perBankWrBursts::0            0                       # Per bank write bursts (Count)
system.mem_ctrls.dram.perBankWrBursts::1            0                       # Per bank write bursts (Count)
system.mem_ctrls.dram.perBankWrBursts::2            0                       # Per bank write bursts (Count)
system.mem_ctrls.dram.perBankWrBursts::3            0                       # Per bank write bursts (Count)
system.mem_ctrls.dram.perBankWrBursts::4            0                       # Per bank write bursts (Count)
system.mem_ctrls.dram.perBankWrBursts::5            0                       # Per bank write bursts (Count)
system.mem_ctrls.dram.perBankWrBursts::6            0                       # Per bank write bursts (Count)
system.mem_ctrls.dram.perBankWrBursts::7            0                       # Per bank write bursts (Count)
system.mem_ctrls.dram.perBankWrBursts::8            0                       # Per bank write bursts (Count)
system.mem_ctrls.dram.perBankWrBursts::9            0                       # Per bank write bursts (Count)
system.mem_ctrls.dram.perBankWrBursts::10            0                       # Per bank write bursts (Count)
system.mem_ctrls.dram.perBankWrBursts::11            0                       # Per bank write bursts (Count)
system.mem_ctrls.dram.perBankWrBursts::12            0                       # Per bank write bursts (Count)
system.mem_ctrls.dram.perBankWrBursts::13            0                       # Per bank write bursts (Count)
system.mem_ctrls.dram.perBankWrBursts::14            0                       # Per bank write bursts (Count)
system.mem_ctrls.dram.perBankWrBursts::15            0                       # Per bank write bursts (Count)
system.mem_ctrls.dram.perBankWrBursts::16            0                       # Per bank write bursts (Count)
system.mem_ctrls.dram.perBankWrBursts::17            0                       # Per bank write bursts (Count)
system.mem_ctrls.dram.perBankWrBursts::18            0                       # Per bank write bursts (Count)
system.mem_ctrls.dram.perBankWrBursts::19            3                       # Per bank write bursts (Count)
system.mem_ctrls.dram.perBankWrBursts::20            0                       # Per bank write bursts (Count)
system.mem_ctrls.dram.perBankWrBursts::21            0                       # Per bank write bursts (Count)
system.mem_ctrls.dram.perBankWrBursts::22           29                       # Per bank write bursts (Count)
system.mem_ctrls.dram.perBankWrBursts::23           58                       # Per bank write bursts (Count)
system.mem_ctrls.dram.perBankWrBursts::24           94                       # Per bank write bursts (Count)
system.mem_ctrls.dram.perBankWrBursts::25          117                       # Per bank write bursts (Count)
system.mem_ctrls.dram.perBankWrBursts::26          181                       # Per bank write bursts (Count)
system.mem_ctrls.dram.perBankWrBursts::27            0                       # Per bank write bursts (Count)
system.mem_ctrls.dram.perBankWrBursts::28            0                       # Per bank write bursts (Count)
system.mem_ctrls.dram.perBankWrBursts::29            0                       # Per bank write bursts (Count)
system.mem_ctrls.dram.perBankWrBursts::30            0                       # Per bank write bursts (Count)
system.mem_ctrls.dram.perBankWrBursts::31           34                       # Per bank write bursts (Count)
system.mem_ctrls.dram.totQLat               652715312                       # Total ticks spent queuing (Tick)
system.mem_ctrls.dram.totBusLat             634726008                       # Total ticks spent in databus transfers (Tick)
system.mem_ctrls.dram.totMemAccLat         3984836360                       # Total ticks spent from burst creation until serviced by the DRAM (Tick)
system.mem_ctrls.dram.avgQLat                 3426.44                       # Average queueing delay per DRAM burst ((Tick/Count))
system.mem_ctrls.dram.avgBusLat               3332.00                       # Average bus latency per DRAM burst ((Tick/Count))
system.mem_ctrls.dram.avgMemAccLat           20918.44                       # Average memory access latency per DRAM burst ((Tick/Count))
system.mem_ctrls.dram.readRowHits              175893                       # Number of row buffer hits during reads (Count)
system.mem_ctrls.dram.writeRowHits                449                       # Number of row buffer hits during writes (Count)
system.mem_ctrls.dram.readRowHitRate            92.34                       # Row buffer hit rate for reads (Ratio)
system.mem_ctrls.dram.writeRowHitRate           87.02                       # Row buffer hit rate for writes (Ratio)
system.mem_ctrls.dram.bytesPerActivate::samples        14668                       # Bytes accessed per row activation (Byte)
system.mem_ctrls.dram.bytesPerActivate::mean   833.361331                       # Bytes accessed per row activation (Byte)
system.mem_ctrls.dram.bytesPerActivate::gmean   690.233806                       # Bytes accessed per row activation (Byte)
system.mem_ctrls.dram.bytesPerActivate::stdev   321.990721                       # Bytes accessed per row activation (Byte)
system.mem_ctrls.dram.bytesPerActivate::0-127          845      5.76%      5.76% # Bytes accessed per row activation (Byte)
system.mem_ctrls.dram.bytesPerActivate::128-255          958      6.53%     12.29% # Bytes accessed per row activation (Byte)
system.mem_ctrls.dram.bytesPerActivate::256-383          326      2.22%     14.51% # Bytes accessed per row activation (Byte)
system.mem_ctrls.dram.bytesPerActivate::384-511          372      2.54%     17.05% # Bytes accessed per row activation (Byte)
system.mem_ctrls.dram.bytesPerActivate::512-639          307      2.09%     19.14% # Bytes accessed per row activation (Byte)
system.mem_ctrls.dram.bytesPerActivate::640-767          515      3.51%     22.65% # Bytes accessed per row activation (Byte)
system.mem_ctrls.dram.bytesPerActivate::768-895         1367      9.32%     31.97% # Bytes accessed per row activation (Byte)
system.mem_ctrls.dram.bytesPerActivate::896-1023          196      1.34%     33.31% # Bytes accessed per row activation (Byte)
system.mem_ctrls.dram.bytesPerActivate::1024-1151         9782     66.69%    100.00% # Bytes accessed per row activation (Byte)
system.mem_ctrls.dram.bytesPerActivate::total        14668                       # Bytes accessed per row activation (Byte)
system.mem_ctrls.dram.dramBytesRead          12191616                       # Total bytes read (Byte)
system.mem_ctrls.dram.dramBytesWritten          33024                       # Total bytes written (Byte)
system.mem_ctrls.dram.avgRdBW             1211.254049                       # Average DRAM read bandwidth in MiBytes/s ((Byte/Second))
system.mem_ctrls.dram.avgWrBW                3.280980                       # Average DRAM write bandwidth in MiBytes/s ((Byte/Second))
system.mem_ctrls.dram.peakBW                 19207.00                       # Theoretical peak bandwidth in MiByte/s ((Byte/Second))
system.mem_ctrls.dram.busUtil                    6.32                       # Data bus utilization in percentage (Ratio)
system.mem_ctrls.dram.busUtilRead                6.31                       # Data bus utilization in percentage for reads (Ratio)
system.mem_ctrls.dram.busUtilWrite               0.02                       # Data bus utilization in percentage for writes (Ratio)
system.mem_ctrls.dram.pageHitRate               92.32                       # Row buffer hit rate, read and write combined (Ratio)
system.mem_ctrls.dram.power_state.pwrStateResidencyTicks::UNDEFINED  62665241000                       # Cumulative time (in ticks) in various power states (Tick)
system.mem_ctrls.dram.rank0.actEnergy    16870888.944000                       # Energy for activate commands per rank (pJ) (Joule)
system.mem_ctrls.dram.rank0.preEnergy    29775349.094400                       # Energy for precharge commands per rank (pJ) (Joule)
system.mem_ctrls.dram.rank0.readEnergy   440348294.198405                       # Energy for read commands per rank (pJ) (Joule)
system.mem_ctrls.dram.rank0.writeEnergy             0                       # Energy for write commands per rank (pJ) (Joule)
system.mem_ctrls.dram.rank0.refreshEnergy 873881225.632806                       # Energy for refresh commands per rank (pJ) (Joule)
system.mem_ctrls.dram.rank0.actBackEnergy 4368446732.076044                       # Energy for active background per rank (pJ) (Joule)
system.mem_ctrls.dram.rank0.preBackEnergy 271566018.124799                       # Energy for precharge background per rank (pJ) (Joule)
system.mem_ctrls.dram.rank0.actPowerDownEnergy            0                       # Energy for active power-down per rank (pJ) (Joule)
system.mem_ctrls.dram.rank0.prePowerDownEnergy            0                       # Energy for precharge power-down per rank (pJ) (Joule)
system.mem_ctrls.dram.rank0.selfRefreshEnergy            0                       # Energy for self refresh per rank (pJ) (Joule)
system.mem_ctrls.dram.rank0.totalEnergy  6000888508.070436                       # Total energy per rank (pJ) (Joule)
system.mem_ctrls.dram.rank0.averagePower   596.196641                       # Core power per rank (mW) (Watt)
system.mem_ctrls.dram.rank0.totalIdleTime            0                       # Total Idle time Per DRAM Rank (Tick)
system.mem_ctrls.dram.rank0.pwrStateTime::IDLE    691632254                       # Time in different power states (Tick)
system.mem_ctrls.dram.rank0.pwrStateTime::REF    452550000                       # Time in different power states (Tick)
system.mem_ctrls.dram.rank0.pwrStateTime::SREF            0                       # Time in different power states (Tick)
system.mem_ctrls.dram.rank0.pwrStateTime::PRE_PDN            0                       # Time in different power states (Tick)
system.mem_ctrls.dram.rank0.pwrStateTime::ACT   8923708746                       # Time in different power states (Tick)
system.mem_ctrls.dram.rank0.pwrStateTime::ACT_PDN            0                       # Time in different power states (Tick)
system.mem_ctrls.dram.rank1.actEnergy    6022310.112000                       # Energy for activate commands per rank (pJ) (Joule)
system.mem_ctrls.dram.rank1.preEnergy    10617929.128800                       # Energy for precharge commands per rank (pJ) (Joule)
system.mem_ctrls.dram.rank1.readEnergy   82487303.875200                       # Energy for read commands per rank (pJ) (Joule)
system.mem_ctrls.dram.rank1.writeEnergy  1217272.896000                       # Energy for write commands per rank (pJ) (Joule)
system.mem_ctrls.dram.rank1.refreshEnergy 873881225.632806                       # Energy for refresh commands per rank (pJ) (Joule)
system.mem_ctrls.dram.rank1.actBackEnergy 4551908368.056039                       # Energy for active background per rank (pJ) (Joule)
system.mem_ctrls.dram.rank1.preBackEnergy 144891908.044799                       # Energy for precharge background per rank (pJ) (Joule)
system.mem_ctrls.dram.rank1.actPowerDownEnergy            0                       # Energy for active power-down per rank (pJ) (Joule)
system.mem_ctrls.dram.rank1.prePowerDownEnergy            0                       # Energy for precharge power-down per rank (pJ) (Joule)
system.mem_ctrls.dram.rank1.selfRefreshEnergy            0                       # Energy for self refresh per rank (pJ) (Joule)
system.mem_ctrls.dram.rank1.totalEnergy  5671026317.745597                       # Total energy per rank (pJ) (Joule)
system.mem_ctrls.dram.rank1.averagePower   563.424372                       # Core power per rank (mW) (Watt)
system.mem_ctrls.dram.rank1.totalIdleTime            0                       # Total Idle time Per DRAM Rank (Tick)
system.mem_ctrls.dram.rank1.pwrStateTime::IDLE    406211444                       # Time in different power states (Tick)
system.mem_ctrls.dram.rank1.pwrStateTime::REF    452550000                       # Time in different power states (Tick)
system.mem_ctrls.dram.rank1.pwrStateTime::SREF            0                       # Time in different power states (Tick)
system.mem_ctrls.dram.rank1.pwrStateTime::PRE_PDN            0                       # Time in different power states (Tick)
system.mem_ctrls.dram.rank1.pwrStateTime::ACT   9212703556                       # Time in different power states (Tick)
system.mem_ctrls.dram.rank1.pwrStateTime::ACT_PDN            0                       # Time in different power states (Tick)
system.mem_ctrls.power_state.pwrStateResidencyTicks::UNDEFINED  62665241000                       # Cumulative time (in ticks) in various power states (Tick)
system.membus.transDist::ReadReq               192625                       # Transaction distribution (Count)
system.membus.transDist::ReadResp              192626                       # Transaction distribution (Count)
system.membus.transDist::WriteReq               11078                       # Transaction distribution (Count)
system.membus.transDist::WriteResp              11078                       # Transaction distribution (Count)
system.membus.transDist::LockedRMWReadReq           15                       # Transaction distribution (Count)
system.membus.transDist::LockedRMWReadResp           15                       # Transaction distribution (Count)
system.membus.transDist::LockedRMWWriteReq           15                       # Transaction distribution (Count)
system.membus.transDist::LockedRMWWriteResp           15                       # Transaction distribution (Count)
system.membus.pktCount_system.cpu.icache_port::system.mem_ctrls.port       337057                       # Packet count per connected requestor and responder (Count)
system.membus.pktCount_system.cpu.icache_port::total       337057                       # Packet count per connected requestor and responder (Count)
system.membus.pktCount_system.cpu.dcache_port::system.mem_ctrls.port        70410                       # Packet count per connected requestor and responder (Count)
system.membus.pktCount_system.cpu.dcache_port::total        70410                       # Packet count per connected requestor and responder (Count)
system.membus.pktCount::total                  407467                       # Packet count per connected requestor and responder (Count)
system.membus.pktSize_system.cpu.icache_port::system.mem_ctrls.port      1348232                       # Cumulative packet size per connected requestor and responder (Byte)
system.membus.pktSize_system.cpu.icache_port::total      1348232                       # Cumulative packet size per connected requestor and responder (Byte)
system.membus.pktSize_system.cpu.dcache_port::system.mem_ctrls.port       204996                       # Cumulative packet size per connected requestor and responder (Byte)
system.membus.pktSize_system.cpu.dcache_port::total       204996                       # Cumulative packet size per connected requestor and responder (Byte)
system.membus.pktSize::total                  1553228                       # Cumulative packet size per connected requestor and responder (Byte)
system.membus.snoops                                0                       # Total snoops (Count)
system.membus.snoopTraffic                          0                       # Total snoop traffic (Byte)
system.membus.snoopFanout::samples             203733                       # Request fanout histogram (Count)
system.membus.snoopFanout::mean                     0                       # Request fanout histogram (Count)
system.membus.snoopFanout::stdev                    0                       # Request fanout histogram (Count)
system.membus.snoopFanout::underflows               0      0.00%      0.00% # Request fanout histogram (Count)
system.membus.snoopFanout::0                   203733    100.00%    100.00% # Request fanout histogram (Count)
system.membus.snoopFanout::1                        0      0.00%    100.00% # Request fanout histogram (Count)
system.membus.snoopFanout::overflows                0      0.00%    100.00% # Request fanout histogram (Count)
system.membus.snoopFanout::min_value                0                       # Request fanout histogram (Count)
system.membus.snoopFanout::max_value                0                       # Request fanout histogram (Count)
system.membus.snoopFanout::total               203733                       # Request fanout histogram (Count)
system.membus.power_state.pwrStateResidencyTicks::UNDEFINED  62665241000                       # Cumulative time (in ticks) in various power states (Tick)
system.membus.reqLayer2.occupancy           214826000                       # Layer occupancy (ticks) (Tick)
system.membus.reqLayer2.utilization               0.0                       # Layer utilization (Ratio)
system.membus.respLayer1.occupancy          421007720                       # Layer occupancy (ticks) (Tick)
system.membus.respLayer1.utilization              0.0                       # Layer utilization (Ratio)
system.membus.respLayer2.occupancy           69985428                       # Layer occupancy (ticks) (Tick)
system.membus.respLayer2.utilization              0.0                       # Layer utilization (Ratio)
system.membus.snoop_filter.totRequests              0                       # Total number of requests made to the snoop filter. (Count)
system.membus.snoop_filter.hitSingleRequests            0                       # Number of requests hitting in the snoop filter with a single holder of the requested data. (Count)
system.membus.snoop_filter.hitMultiRequests            0                       # Number of requests hitting in the snoop filter with multiple (>1) holders of the requested data. (Count)
system.membus.snoop_filter.totSnoops                0                       # Total number of snoops made to the snoop filter. (Count)
system.membus.snoop_filter.hitSingleSnoops            0                       # Number of snoops hitting in the snoop filter with a single holder of the requested data. (Count)
system.membus.snoop_filter.hitMultiSnoops            0                       # Number of snoops hitting in the snoop filter with multiple (>1) holders of the requested data. (Count)
system.voltage_domain.voltage                       1                       # Voltage in Volts (Volt)
system.workload.inst.arm                            0                       # number of arm instructions executed (Count)
system.workload.inst.quiesce                        0                       # number of quiesce instructions executed (Count)

---------- End Simulation Statistics   ----------
